 110
scf done:    -4760.193949
 C     0.824030     0.594782     3.173762
 H     1.918973     0.654220     3.176677
 H     0.389236     1.274566     3.917511
 C     0.251941    -0.779243     3.182467
 H     0.977592    -1.584061     3.371495
 H    -0.629595    -0.906991     3.822683
 H    -0.127301    -1.104948     2.122433
Co    -0.015922     0.505255     1.422402
 C    -2.112490    -1.814424    -0.071125
 C    -3.264366     0.378525     1.406796
 C    -2.159501     0.738681    -1.316550
 C     1.579003     0.755710    -1.596028
 C     3.426020     1.055617     0.554945
 C     2.378749    -1.544039     0.062508
 P     1.802625     0.234758     0.151450
 P    -1.834647    -0.028862     0.320642
 C    -0.570622     2.084781     1.705726
 O    -0.892242     3.168948     1.972686
 C    -0.979913    -2.612580    -0.235383
 H     0.004559    -2.170024    -0.082808
 C    -3.373690    -2.414311    -0.185689
 H    -4.266898    -1.818343    -0.000771
 C    -1.080930    -3.967367    -0.550129
 H    -0.190880    -4.589460    -0.664546
 C    -3.495388    -3.764249    -0.497705
 H    -4.471440    -4.246505    -0.583491
 C    -2.343920    -4.523242    -0.687684
 F    -2.462689    -5.819357    -0.985909
 C    -3.888194     1.638342     1.341632
 O    -3.464417     2.448390     0.363950
 C    -3.709317     3.822607     0.414659
 H    -3.108992     4.258199    -0.393841
 H    -4.775286     4.060401     0.248070
 H    -3.380083     4.249653     1.376269
 C    -3.605881    -0.468155     2.477255
 O    -2.883425    -1.602883     2.584981
 C    -3.227547    -2.567183     3.534788
 H    -2.544560    -3.412126     3.378791
 H    -4.266119    -2.917854     3.403585
 H    -3.104584    -2.192288     4.566366
 C    -4.611330    -0.120931     3.387514
 H    -4.881200    -0.792027     4.202115
 C    -4.879445     2.004657     2.260234
 H    -5.359884     2.980291     2.190805
 C    -5.239636     1.114378     3.264661
 H    -6.016454     1.394826     3.980095
 C    -3.306265     0.621162    -2.024102
 O    -4.363556     0.007189    -1.447914
 C    -5.420431    -0.484325    -2.224687
 H    -6.033062    -1.105256    -1.557062
 H    -6.059474     0.323677    -2.620147
 H    -5.067227    -1.111431    -3.060707
 C    -1.003591     1.538201    -1.863851
 O    -0.895461     2.670593    -1.061454
 C     0.245481     3.482539    -1.139040
 H    -0.059209     4.490175    -0.820087
 H     0.657979     3.550937    -2.161035
 H     1.036324     3.127589    -0.462233
 C    -1.097414     1.847675    -3.383886
 H    -0.693259     2.855048    -3.569733
 C    -3.455061     1.167265    -3.375010
 H    -4.432646     1.110953    -3.855736
 C    -2.427126     1.730615    -4.026493
 H    -2.565492     2.132825    -5.034425
 C     2.562664     1.262995    -2.363952
 H     3.566279     1.388784    -1.956805
 C     0.203709     0.561198    -2.154295
 H    -0.116716    -0.451734    -1.880058
 C     2.360226     1.609489    -3.765821
 H     3.174950     2.049858    -4.344270
 C     0.009073     0.793634    -3.679264
 H    -0.382107    -0.080281    -4.225081
 C     1.193957     1.348499    -4.370406
 F     0.997759     1.631802    -5.663229
 C     4.673552     0.495448     0.202288
 O     4.658177    -0.484673    -0.721593
 C     5.768118    -1.317065    -0.889837
 H     5.446522    -2.128018    -1.556444
 H     6.618662    -0.786365    -1.353129
 H     6.095932    -1.756022     0.068191
 C     3.451454     2.210528     1.365233
 O     2.287795     2.849994     1.545104
 C     2.197301     3.894665     2.474940
 H     1.142171     4.188839     2.498237
 H     2.816046     4.759186     2.176963
 H     2.501941     3.562253     3.482071
 C     4.648065     2.676718     1.932095
 H     4.647979     3.550062     2.582219
 C     5.871961     0.953832     0.762725
 H     6.821962     0.492495     0.495042
 C     5.841260     2.030169     1.640975
 H     6.772577     2.393725     2.082216
 C     2.969535    -2.077115     1.226052
 O     3.139466    -1.205493     2.239740
 C     3.841138    -1.579855     3.387745
 H     3.880251    -0.689275     4.027499
 H     3.333171    -2.392248     3.937245
 H     4.871029    -1.896471     3.147785
 C     2.226361    -2.416565    -1.031006
 O     1.657242    -1.912147    -2.143101
 C     1.477309    -2.721250    -3.268384
 H     1.025566    -2.083162    -4.038353
 H     0.798166    -3.566873    -3.062545
 H     2.436473    -3.111170    -3.651101
 C     2.635524    -3.756977    -0.958933
 H     2.505783    -4.419930    -1.813330
 C     3.385316    -3.410398     1.308587
 H     3.839502    -3.795951     2.220523
 C     3.209417    -4.242486     0.209337
 H     3.524175    -5.287144     0.263654
