  94
scf done:    -4302.512274
 C     1.015381    -0.423525    -3.305610
 H     0.760556     0.122941    -4.222563
 H     2.097031    -0.585772    -3.245966
 C     0.188711    -1.637600    -3.050183
 H    -0.580953    -1.843423    -3.808918
 H     0.777762    -2.549516    -2.866082
 H    -0.445098    -1.553163    -2.073574
Co     0.071511     0.080759    -1.685657
 C     1.277478    -1.398271     1.144037
 C     3.228150    -1.044298    -0.922325
 C     2.408895     1.207468     0.600570
 C    -1.571529     1.673354     0.722712
 C    -3.247756     0.519259    -1.317450
 C    -2.268224    -1.163109     0.689246
 P    -1.687111     0.223521    -0.388090
 P     1.700323    -0.266195    -0.246075
 C    -0.097585     1.653036    -2.314991
 O    -0.111699     2.737042    -2.729934
 C     1.420503    -1.084647     2.500270
 H     1.898259    -0.149228     2.794591
 C     0.646431    -2.604916     0.807632
 H     0.475230    -2.844663    -0.245243
 C     0.941259    -1.939443     3.491297
 H     1.026383    -1.690327     4.550758
 C     0.202789    -3.489773     1.783471
 H    -0.293808    -4.425910     1.526187
 C     0.339306    -3.133299     3.118399
 F    -0.136206    -3.947984     4.060946
 C     3.618063    -2.358513    -0.671952
 H     3.043154    -2.958817     0.035943
 C     4.002061    -0.273391    -1.815852
 O     3.588141     0.992845    -1.999630
 C     4.153003     1.782463    -3.004433
 H     5.211628     2.018115    -2.795760
 H     3.575122     2.714967    -3.023624
 H     4.080113     1.294159    -3.992048
 C     4.737846    -2.914854    -1.292753
 H     5.022814    -3.947375    -1.079195
 C     5.124208    -0.824301    -2.441446
 H     5.718431    -0.226023    -3.133021
 C     5.486447    -2.145077    -2.177082
 H     6.364819    -2.568558    -2.670339
 C     1.835914     2.456161     0.368065
 H     0.957313     2.511193    -0.274736
 C     3.572549     1.140125     1.398179
 O     4.106846    -0.081151     1.584571
 C     5.330934    -0.218836     2.243670
 H     6.126245     0.368433     1.752699
 H     5.591220    -1.283603     2.191266
 H     5.266126     0.083582     3.304203
 C     2.366504     3.619880     0.922637
 H     1.888511     4.582254     0.730166
 C     4.111647     2.304104     1.956556
 H     5.007452     2.255414     2.576273
 C     3.503111     3.536668     1.718317
 H     3.933837     4.438262     2.161378
 C    -2.096256     2.904172     0.310521
 H    -2.674576     2.966082    -0.614143
 C    -0.799666     1.633024     1.890329
 H    -0.323944     0.701649     2.199742
 C    -1.879284     4.059693     1.055344
 H    -2.277885     5.025131     0.738404
 C    -0.593235     2.775928     2.656736
 H     0.016171     2.752210     3.561542
 C    -1.135523     3.978598     2.226294
 F    -0.924605     5.083819     2.942060
 C    -3.220817     0.426108    -2.707456
 H    -2.248956     0.245032    -3.175630
 C    -4.480661     0.756299    -0.672787
 O    -4.450913     0.844032     0.667387
 C    -5.638338     1.026090     1.382761
 H    -6.121470     1.987923     1.137116
 H    -5.363000     1.026808     2.444841
 H    -6.354808     0.206520     1.199835
 C    -4.381314     0.561717    -3.468306
 H    -4.337641     0.488267    -4.556803
 C    -5.648053     0.896430    -1.431537
 H    -6.605104     1.086140    -0.944927
 C    -5.590441     0.796835    -2.821962
 H    -6.510693     0.910009    -3.400825
 C    -2.463400    -1.076383     2.066890
 H    -2.267160    -0.132598     2.574735
 C    -2.592954    -2.379204     0.052148
 O    -2.402040    -2.417649    -1.283428
 C    -2.855435    -3.515255    -2.023383
 H    -2.313808    -4.441084    -1.761310
 H    -2.665655    -3.278877    -3.077755
 H    -3.937353    -3.678456    -1.881334
 C    -2.935092    -2.159136     2.808979
 H    -3.062650    -2.064065     3.889090
 C    -3.087764    -3.461434     0.783995
 H    -3.341866    -4.396410     0.284093
 C    -3.247221    -3.349863     2.164447
 H    -3.619963    -4.204800     2.733383
