  94
scf done:    -5023.221255
 C    -0.974948    -0.492557    -3.682540
 H    -1.951043    -0.958145    -3.512135
 H    -0.994024     0.150073    -4.570194
 C     0.186863    -1.426336    -3.607402
 H    -0.096470    -2.473906    -3.429467
 H     0.884798    -1.362505    -4.453287
 H     0.875993    -1.212559    -2.685230
Co    -0.006128     0.192089    -2.126327
 C     2.864824    -0.515122    -0.375487
 O     2.428152     1.984831    -1.264828
 O     1.181165     1.078556     0.795193
 C    -2.824521     0.536317    -0.268942
 O    -2.283453    -1.878886    -1.364452
 O    -1.094841    -1.090505     0.763401
 P    -1.452895    -0.540775    -0.778910
 P     1.538920     0.662516    -0.771877
 C    -0.065643     1.755591    -2.836185
 O    -0.201518     2.807653    -3.289088
 C     3.387688    -0.662320     0.911616
 H     2.953569    -0.095665     1.735298
 C     3.423971    -1.243266    -1.431170
 H     3.028340    -1.128089    -2.443968
 C     4.451365    -1.527921     1.143456
 H     4.860734    -1.652884     2.146899
 C     4.486408    -2.112166    -1.212206
 H     4.925072    -2.684750    -2.030677
 C     4.991475    -2.247312     0.080471
Cl     6.304063    -3.342202     0.369259
 C     3.547159     2.407064    -0.585398
 C     3.429161     3.215860     0.542631
 H     2.439656     3.514309     0.892557
 C     4.807368     2.025864    -1.043971
 H     4.880648     1.389023    -1.927006
 C     4.578874     3.633303     1.209372
 H     4.478256     4.266016     2.095561
 C     5.945227     2.450671    -0.366686
 H     6.928995     2.141225    -0.730462
 C     5.854521     3.260082     0.772749
 C     7.089999     3.734215     1.481895
 H     6.871526     4.031112     2.517636
 H     7.527418     4.610142     0.974087
 H     7.864969     2.953625     1.506721
 C     0.141662     1.898034     1.147372
 C    -0.302824     2.943056     0.338316
 H     0.189836     3.159419    -0.609675
 C    -0.467049     1.664492     2.379454
 H    -0.095821     0.850292     3.001590
 C    -1.390371     3.710948     0.749963
 H    -1.746497     4.510392     0.095018
 C    -1.541326     2.449282     2.778210
 H    -2.022668     2.244821     3.738612
 C    -2.035967     3.479253     1.966941
 C    -3.201636     4.317529     2.402145
 H    -3.918632     3.731894     2.995729
 H    -3.745303     4.729946     1.540691
 H    -2.872588     5.165894     3.025682
 C    -3.226867     1.534520    -1.160821
 H    -2.664367     1.689013    -2.084733
 C    -3.531406     0.355336     0.924961
 H    -3.216211    -0.418802     1.625447
 C    -4.327047     2.337545    -0.877861
 H    -4.642927     3.121494    -1.567680
 C    -4.630559     1.153643     1.219978
 H    -5.187841     1.018312     2.148116
 C    -5.020057     2.139418     0.314828
Cl    -6.375770     3.151815     0.690567
 C    -3.393276    -2.401687    -0.752696
 C    -3.258737    -3.345849     0.263537
 H    -2.261506    -3.664944     0.571766
 C    -4.662212    -1.988486    -1.158197
 H    -4.749878    -1.238363    -1.946316
 C    -4.398733    -3.866657     0.871623
 H    -4.284756    -4.604657     1.670607
 C    -5.790346    -2.518259    -0.541223
 H    -6.780377    -2.181332    -0.860892
 C    -5.682299    -3.464792     0.485496
 C    -6.906928    -4.049334     1.128145
 H    -6.686407    -4.446710     2.129322
 H    -7.312412    -4.880605     0.527148
 H    -7.706896    -3.300535     1.226598
 C    -0.098041    -1.977257     1.035440
 C     0.449627    -2.833906     0.075360
 H     0.072882    -2.818826    -0.947377
 C     0.359632    -2.041490     2.351606
 H    -0.093076    -1.386673     3.097221
 C     1.466166    -3.714279     0.436125
 H     1.890913    -4.369824    -0.329058
 C     1.366551    -2.937057     2.695866
 H     1.712256    -2.975565     3.732644
 C     1.947506    -3.786856     1.747282
 C     3.039391    -4.747698     2.117222
 H     2.759905    -5.784702     1.872561
 H     3.262149    -4.706483     3.192823
 H     3.972009    -4.528098     1.573984
