  68
scf done:    -3115.673968
 C    -1.615958    -3.305025    -0.307857
 H    -2.647698    -3.654578    -0.434457
 H    -0.960588    -3.817699    -1.021917
 C    -1.131458    -3.310569     1.106077
 H    -1.870512    -3.643755     1.848557
 H    -0.189256    -3.858185     1.264159
 H    -0.851399    -2.236375     1.480754
Co    -1.364616    -1.406534     0.026331
 C     1.982124    -0.574355    -0.331994
 C     1.119493    -2.639160    -2.047606
 C     0.280085     0.066761    -2.555366
 C    -0.955207     1.945268     0.158614
 C    -2.867617     0.869425     2.000455
 C    -0.049301     0.541243     2.534298
 P    -1.277885     0.444698     1.157934
 P     0.443971    -1.146509    -1.171779
 C    -2.885820    -1.048767    -0.640684
 O    -3.878935    -0.778585    -1.182531
 C     2.739504     0.537757    -0.711452
 H     2.455988     1.131136    -1.581880
 C     2.379274    -1.298126     0.802094
 H     1.766998    -2.146657     1.125765
 C     3.859082     0.909356     0.035574
 H     4.443796     1.783241    -0.264290
 C     3.504445    -0.950853     1.551502
 C     3.918107    -1.757179     2.748229
 H     3.114635    -2.432115     3.075567
 H     4.800502    -2.377843     2.520843
 H     4.188578    -1.109898     3.596290
 C     4.239325     0.175816     1.154595
 H     5.116662     0.479163     1.732815
 H     0.281260    -3.044909    -2.636960
 C     2.354125    -2.442400    -2.908757
 H     3.184046    -2.005743    -2.331953
 H     2.155525    -1.777808    -3.763291
 H     1.309675    -3.383110    -1.255751
 H     2.701279    -3.403362    -3.320124
 H     1.236476     0.134427    -3.098632
 C    -0.854704    -0.269909    -3.509330
 H    -1.817692    -0.323820    -2.982913
 H    -0.697136    -1.238248    -4.010150
 H     0.104814     1.048378    -2.090196
 H    -0.937870     0.497493    -4.294198
 C    -1.914472     2.334998    -0.787901
 H    -2.861352     1.796018    -0.869204
 C     0.267828     2.621995     0.197189
 H     1.039781     2.317503     0.906511
 C    -1.643639     3.380985    -1.664131
 H    -2.391695     3.672791    -2.405204
 C     0.555137     3.673221    -0.682181
 C     1.870557     4.391935    -0.602116
 H     1.806071     5.257465     0.078333
 H     2.662095     3.732846    -0.216897
 H     2.183712     4.772860    -1.585135
 C    -0.417010     4.042400    -1.616861
 H    -0.209141     4.854334    -2.319263
 H    -3.609985     0.990051     1.196277
 C    -3.305599    -0.234194     2.949431
 H    -2.622361    -0.333877     3.807899
 H    -3.323075    -1.199010     2.418173
 H    -2.776837     1.843624     2.506637
 H    -4.312865    -0.041594     3.348243
 H     0.942928     0.484291     2.060290
 C    -0.152965     1.720722     3.488256
 H    -1.079065     1.685103     4.080950
 H    -0.139483     2.683145     2.955055
 H    -0.153602    -0.412116     3.078524
 H     0.689596     1.721043     4.197295
