 108
scf done:    -3739.396324
 C    -0.864107     0.243086    -3.416509
 H    -0.543270    -0.305213    -4.310670
 H    -1.954040     0.359096    -3.429009
 C    -0.107272     1.502254    -3.158859
 H     0.697515     1.719150    -3.875801
 H    -0.735909     2.399365    -3.041800
 H     0.457743     1.470324    -2.138198
Co     0.042446    -0.181528    -1.743153
 C    -1.498799     1.373906     0.888237
 C    -3.296603     0.532404    -1.168549
 C    -2.019839    -1.461744     0.694730
 C     1.544058    -1.358788     1.070424
 C     3.262240    -0.774092    -1.143806
 C     2.094572     1.439396     0.585821
 P     1.709847    -0.154099    -0.307745
 P    -1.674647     0.034719    -0.366346
 C     0.483809    -1.687730    -2.389243
 O     0.723915    -2.745160    -2.811511
 C    -1.313934     1.169143     2.260847
 H    -1.328221     0.161776     2.677026
 C    -1.458078     2.692466     0.408775
 H    -1.574943     2.871578    -0.664998
 C    -1.096303     2.251642     3.113694
 H    -0.943666     2.073999     4.181615
 C    -1.272625     3.790244     1.250925
 C    -1.290989     5.187024     0.700920
 H    -0.884821     5.221712    -0.320682
 H    -2.321167     5.578128     0.657527
 H    -0.704647     5.876160     1.325605
 C    -1.081245     3.551949     2.618937
 H    -0.916129     4.393885     3.296661
 H    -2.951553     1.279742    -1.909490
 C    -4.374305     1.217448    -0.325988
 H    -3.949521     2.050894     0.252286
 H    -4.784590     0.508193     0.409505
 C    -5.504949     1.723200    -1.219608
 H    -6.285904     2.201077    -0.605464
 H    -5.110365     2.511270    -1.887125
 C    -6.104053     0.604238    -2.064826
 H    -6.885980     1.001491    -2.732527
 H    -6.605328    -0.120743    -1.397690
 C    -5.032016    -0.122397    -2.869722
 H    -4.610762     0.563911    -3.626882
 H    -5.472800    -0.964911    -3.427118
 C    -3.905671    -0.621369    -1.970472
 H    -4.314857    -1.370103    -1.271313
 H    -3.129129    -1.134319    -2.557923
 H    -1.148966    -1.459691     1.376484
 C    -1.938733    -2.778691    -0.083445
 H    -1.002670    -2.815894    -0.656055
 H    -2.753379    -2.827036    -0.824300
 C    -2.036656    -3.979936     0.851786
 H    -2.020405    -4.911446     0.262600
 H    -1.140137    -4.000190     1.493436
 C    -3.276081    -3.928544     1.736518
 H    -3.287182    -4.782201     2.434055
 H    -4.181394    -4.027875     1.109885
 C    -3.347007    -2.611774     2.500151
 H    -2.496735    -2.551277     3.204983
 H    -4.264015    -2.564600     3.110417
 C    -3.291884    -1.423698     1.544449
 H    -4.170752    -1.470668     0.880132
 H    -3.375637    -0.477132     2.098863
 C     1.604384    -2.729106     0.775012
 H     1.777384    -3.067031    -0.249018
 C     1.279892    -0.974639     2.389572
 H     1.221496     0.083347     2.648288
 C     1.433394    -3.671421     1.784030
 H     1.497950    -4.735301     1.543653
 C     1.068172    -1.911855     3.407673
 C     0.712963    -1.458261     4.794089
 H     1.104712    -0.452029     5.002278
 H    -0.382418    -1.416927     4.922773
 H     1.103047    -2.144944     5.559347
 C     1.162872    -3.269791     3.091262
 H     1.017640    -4.019877     3.873474
 H     2.875020    -1.704077    -1.598017
 C     4.480335    -1.171458    -0.311475
 H     4.182961    -1.813515     0.531950
 H     4.956344    -0.279893     0.123394
 C     5.500182    -1.886251    -1.195680
 H     6.385703    -2.165627    -0.601657
 H     5.061160    -2.831209    -1.563731
 C     5.909030    -1.022426    -2.384937
 H     6.619929    -1.565476    -3.028809
 H     6.447187    -0.131336    -2.012453
 C     4.697624    -0.570753    -3.194297
 H     4.225492    -1.448888    -3.669891
 H     5.009250     0.097332    -4.013809
 C     3.661952     0.122833    -2.315256
 H     4.083152     1.069076    -1.931458
 H     2.762270     0.378373    -2.898332
 H     1.223863     1.537537     1.260541
 C     2.061282     2.676868    -0.315607
 H     1.112432     2.710301    -0.868764
 H     2.866187     2.618361    -1.067840
 C     2.210388     3.959144     0.499193
 H     2.225116     4.830069    -0.176518
 H     1.317104     4.069189     1.135818
 C     3.446692     3.949302     1.388587
 H     3.486004     4.866570     1.998519
 H     4.355758     3.954644     0.759819
 C     3.465268     2.710760     2.275418
 H     2.613083     2.747950     2.978596
 H     4.379805     2.686678     2.890240
 C     3.369709     1.444342     1.431359
 H     4.241182     1.413647     0.757683
 H     3.433394     0.546306     2.063669
