  80
scf done:    -3645.433584
 C    -1.232759    -0.483197    -3.187570
 H    -2.235001    -0.914461    -3.100040
 H    -1.179902     0.270590    -3.980857
 C    -0.097930    -1.433619    -3.140531
 H    -0.389571    -2.493983    -3.125741
 H     0.693679    -1.262339    -3.881278
 H     0.492674    -1.384212    -2.107352
Co    -0.334891    -0.044942    -1.509295
 O     2.051064    -0.920075     0.463832
 O     2.722692     0.639000    -1.388078
 O     1.544453     1.611229     0.565978
 O    -2.350133    -0.242995     1.122094
 O    -3.156617    -1.388006    -1.009781
 O    -1.526821    -2.449986     0.483722
 P    -1.763437    -1.014724    -0.265333
 P     1.439434     0.339606    -0.449767
 C    -0.545829     1.605101    -1.912849
 O    -0.750641     2.708178    -2.189979
 C     3.373148    -1.045212     0.795636
 C     4.107677    -2.079349     0.214742
 H     3.611393    -2.736981    -0.500942
 C     3.974833    -0.178506     1.709649
 H     3.382998     0.623139     2.151709
 C     5.449874    -2.243926     0.547300
 H     6.023298    -3.053703     0.089809
 C     5.320670    -0.347576     2.030124
 H     5.792208     0.333646     2.742553
 C     6.062860    -1.377145     1.452603
 H     7.116752    -1.505437     1.708645
 C     3.668779     1.716618    -1.265675
 H     3.710714     2.023127    -0.209643
 C     3.190606     2.883228    -2.105233
 H     2.197763     3.218159    -1.773063
 H     3.119807     2.591503    -3.164306
 H     3.888047     3.730382    -2.021797
 C     5.014365     1.169617    -1.687107
 H     5.311081     0.331783    -1.040276
 H     4.974378     0.812141    -2.727408
 H     5.782418     1.954415    -1.617710
 C     0.413504     1.980394     1.375466
 H    -0.465084     1.457993     0.967009
 C     0.202022     3.470075     1.239475
 H     0.024097     3.737288     0.188801
 H     1.081666     4.023336     1.604056
 H    -0.679134     3.777220     1.821710
 C     0.649196     1.519425     2.797958
 H     0.793919     0.429721     2.837982
 H     1.540425     2.007419     3.223232
 H    -0.215963     1.775324     3.425979
 C    -2.865145     1.012017     1.172867
 C    -2.998665     1.587580     2.441231
 H    -2.700410     1.001191     3.312483
 C    -3.260176     1.727168     0.037479
 H    -3.182910     1.270236    -0.949247
 C    -3.500825     2.878600     2.569869
 H    -3.602609     3.318729     3.565035
 C    -3.747350     3.025503     0.180308
 H    -4.035237     3.583001    -0.713989
 C    -3.868687     3.609998     1.439103
 H    -4.253904     4.626677     1.540510
 C    -4.240858    -2.076312    -0.363005
 H    -4.041768    -2.094697     0.721051
 C    -4.283985    -3.496185    -0.887531
 H    -3.335498    -4.004557    -0.667091
 H    -4.442292    -3.497427    -1.977192
 H    -5.104130    -4.059116    -0.416564
 C    -5.504583    -1.287461    -0.631060
 H    -5.417736    -0.266945    -0.231234
 H    -5.692934    -1.221282    -1.713813
 H    -6.369844    -1.774185    -0.156555
 C    -0.465401    -2.613822     1.432227
 H     0.128148    -1.685857     1.467764
 C     0.434045    -3.727348     0.942707
 H     0.838928    -3.472649    -0.046771
 H    -0.127640    -4.671137     0.863049
 H     1.279919    -3.874949     1.630359
 C    -1.078553    -2.869103     2.793112
 H    -1.722186    -2.025518     3.079343
 H    -1.691259    -3.783848     2.773754
 H    -0.294180    -2.991693     3.555416
