  52
scf done:    -3030.367456
 C    -3.889761     1.239570    -0.165400
 H    -4.845932     0.872137     0.225706
 H    -3.752075     2.288867     0.122549
 C    -3.654189     0.949975    -1.613424
 H    -4.467723     0.405233    -2.112364
 H    -3.380570     1.829069    -2.215703
 H    -2.729490     0.250843    -1.783556
Co    -2.381552     0.009068    -0.087276
 O     0.446574     1.513168    -0.515636
 C    -1.337789     3.273760     0.523241
 C    -0.273770     1.233067     2.139424
 O     0.399392    -1.450871     0.405993
 C    -1.402650    -3.198629    -0.643732
 C    -0.170455    -1.234117    -2.281031
 P    -0.930186    -1.436266    -0.633439
 P    -0.952148     1.483488     0.462018
 C    -3.184464    -0.987124     1.049992
 O    -3.683498    -1.610013     1.888155
 C     1.579417     2.218625    -0.249839
 C     2.564047     1.688083     0.590356
 H     2.396200     0.714629     1.053004
 C     1.786891     3.454198    -0.870402
 H     1.014765     3.843345    -1.537103
 C     3.742576     2.397654     0.810040
 H     4.508702     1.975261     1.464876
 C     2.968871     4.156350    -0.644618
 H     3.125170     5.120325    -1.135108
 C     3.949550     3.633779     0.198130
 H     4.875427     4.186021     0.373039
 H    -2.118566     3.440476     1.279293
 H    -0.449745     3.865937     0.789570
 H    -1.720649     3.610528    -0.451327
 H     0.125934     0.212112     2.198622
 H     0.498015     1.966940     2.415224
 H    -1.123507     1.313014     2.833614
 C     1.516051    -2.215005     0.230232
 C     2.575337    -1.739895    -0.548427
 H     2.482589    -0.766167    -1.031720
 C     1.623028    -3.445183     0.883684
 H     0.792629    -3.786888     1.504512
 C     3.733128    -2.504013    -0.677538
 H     4.560309    -2.126648    -1.283626
 C     2.785032    -4.201780     0.747548
 H     2.865725    -5.162081     1.262630
 C     3.841722    -3.737160    -0.035193
 H     4.751638    -4.332273    -0.138508
 H    -0.564936    -3.859011    -0.912994
 H    -1.791319    -3.470158     0.348210
 H    -2.216977    -3.324170    -1.372813
 H     0.244910    -0.218429    -2.337745
 H     0.611816    -1.979271    -2.486651
 H    -0.970603    -1.334018    -3.030207
