  70
scf done:    -3266.054810
 C     1.935985    -3.741170    -0.516563
 H     2.855945    -4.229109    -0.172843
 H     1.079841    -4.401853    -0.334420
 C     2.009628    -3.177690    -1.899404
 H     2.976729    -3.315155    -2.403243
 H     1.199315    -3.504223    -2.568049
 H     1.874689    -2.014624    -1.912197
Co     1.776749    -1.830155    -0.175007
 O    -1.193290    -0.596690    -0.473692
 C    -1.373979    -3.290788     0.135236
 C    -0.592479    -1.329574     2.099883
 O     1.177869     1.143225     0.771427
 C     3.634204     0.983040    -0.391402
 C     1.247905     0.936623    -2.026774
 P     1.941425     0.275825    -0.451420
 P    -0.295850    -1.801512     0.347625
 C     3.003156    -1.916180     1.011248
 O     3.760506    -1.999906     1.884166
 C    -2.542899    -0.430863    -0.460819
 C    -3.181093     0.273730     0.562974
 H    -2.588992     0.683403     1.382658
 C    -3.302343    -0.924905    -1.525864
 H    -2.791496    -1.455746    -2.331809
 C    -4.563709     0.445979     0.531062
 H    -5.049523     0.993002     1.343952
 C    -4.680809    -0.745668    -1.543859
 H    -5.260504    -1.147249    -2.380065
 C    -5.341703    -0.062500    -0.513877
 C    -6.829056     0.138939    -0.553043
 H    -7.214301     0.482208     0.417439
 H    -7.354669    -0.791608    -0.816509
 H    -7.109913     0.893396    -1.306578
 H    -0.713628    -4.136828     0.383727
 C    -2.677869    -3.411718     0.912295
 H    -3.381887    -2.599009     0.688818
 H    -2.502502    -3.415044     1.998168
 H    -1.548175    -3.371044    -0.951703
 H    -3.178682    -4.360480     0.662803
 H    -1.674984    -1.243206     2.282605
 C     0.052454    -2.297189     3.082190
 H     1.138523    -2.357357     2.926392
 H    -0.352991    -3.316967     2.986328
 H    -0.150401    -0.325499     2.193529
 H    -0.124014    -1.969932     4.118207
 C     0.794769     2.450931     0.696992
 C    -0.474624     2.772532     0.212808
 H    -1.128253     1.966828    -0.122273
 C     1.644407     3.464591     1.140007
 H     2.625851     3.201170     1.538692
 C    -0.873784     4.103514     0.150867
 H    -1.867633     4.341981    -0.238579
 C     1.230318     4.793027     1.070367
 H     1.906663     5.580763     1.414102
 C    -0.030837     5.140096     0.572537
 C    -0.482365     6.571296     0.526138
 H    -1.113144     6.766626    -0.353688
 H     0.371592     7.263075     0.493628
 H    -1.079098     6.828484     1.417445
 H     3.997487     0.773696     0.627863
 C     4.542819     0.336006    -1.426589
 H     4.242428     0.593595    -2.454511
 H     4.507661    -0.760742    -1.332452
 H     3.592170     2.077433    -0.510368
 H     5.586649     0.657913    -1.295878
 H     0.158185     0.817250    -1.918200
 C     1.636573     2.328497    -2.503910
 H     2.718477     2.411869    -2.686320
 H     1.354890     3.111367    -1.786830
 H     1.544375     0.179890    -2.773497
 H     1.128755     2.554849    -3.454433
