 100
scf done:    -3658.866063
 C    -1.054805     1.286922    -2.925482
 H    -2.106725     1.576351    -3.034814
 H    -0.410282     2.161496    -2.782129
 C    -0.588492     0.264106    -3.870670
 H    -1.345575    -0.126702    -4.563552
 H     0.334897     0.510956    -4.416724
 H    -0.193079    -0.760187    -3.328285
Co    -0.669644    -0.318943    -1.847789
 O    -0.959860     2.164124     0.004712
 C    -3.422490     1.186510    -0.604577
 C    -1.732487    -0.042442     1.374963
 O     1.696081    -0.272482     0.515206
 C     2.670240    -1.149369    -1.904216
 C     2.028686     1.617709    -1.257467
 P     1.359179    -0.084994    -1.145293
 P    -1.678746     0.665126    -0.317133
 C    -1.367838    -1.897248    -1.666681
 O    -1.803216    -2.969463    -1.601440
 C    -0.882791     2.779059     1.217138
 C     0.240745     2.565619     2.021729
 H     1.005908     1.866064     1.678306
 C    -1.885940     3.658544     1.630489
 H    -2.748063     3.824064     0.981396
 C     0.351686     3.230049     3.240343
 H     1.230269     3.060013     3.867735
 C    -1.765456     4.316577     2.853440
 H    -2.551214     5.005006     3.174150
 C    -0.649637     4.105186     3.662575
 H    -0.559206     4.623780     4.619478
 H    -3.889001     1.414578     0.368928
 H    -3.360401     2.135894    -1.161272
 C    -4.236975     0.168027    -1.388880
 H    -3.706039    -0.053910    -2.330167
 H    -4.267325    -0.792524    -0.846896
 C    -5.656101     0.630910    -1.682358
 H    -5.620843     1.594138    -2.224094
 H    -6.180498     0.842674    -0.732422
 C    -6.462745    -0.375199    -2.491354
 H    -5.931329    -0.584830    -3.436412
 H    -6.489581    -1.336086    -1.947806
 C    -7.880086     0.085471    -2.790038
 H    -8.436218    -0.662322    -3.375477
 H    -7.882122     1.025957    -3.364532
 H    -8.445193     0.267865    -1.861640
 H    -0.685924    -0.131787     1.703117
 H    -2.205466     0.701369     2.038178
 C    -2.420858    -1.392499     1.507806
 H    -3.484150    -1.314424     1.220853
 H    -1.966636    -2.112213     0.811370
 C    -2.311469    -1.945547     2.921750
 H    -2.819948    -1.265299     3.629494
 H    -1.247906    -1.951941     3.215743
 C    -2.873458    -3.351735     3.065628
 H    -3.937766    -3.356405     2.769694
 H    -2.359601    -4.012819     2.345778
 C    -2.725310    -3.913285     4.470115
 H    -3.131071    -4.933542     4.547993
 H    -3.251756    -3.288273     5.209649
 H    -1.665156    -3.950583     4.768663
 C     1.470178    -1.378721     1.260030
 C     1.737434    -1.272647     2.631652
 H     2.101344    -0.319374     3.019978
 C     1.000909    -2.589402     0.739225
 H     0.773094    -2.678021    -0.322635
 C     1.544942    -2.367488     3.466817
 H     1.760059    -2.271799     4.533905
 C     0.804405    -3.676859     1.590256
 H     0.429918    -4.613700     1.170706
 C     1.075843    -3.578242     2.952760
 H     0.921219    -4.435783     3.610738
 H     2.174676    -2.096701    -2.174533
 H     2.905680    -0.656330    -2.865682
 C     3.938221    -1.436114    -1.111338
 H     4.442557    -0.496400    -0.840098
 H     3.669713    -1.917322    -0.156749
 C     4.910116    -2.333697    -1.865048
 H     5.190800    -1.854743    -2.821284
 H     4.399336    -3.274337    -2.141204
 C     6.169263    -2.657758    -1.073037
 H     6.673634    -1.715160    -0.795296
 H     5.880747    -3.132569    -0.118693
 C     7.139951    -3.557185    -1.820894
 H     8.037970    -3.773487    -1.222541
 H     7.472278    -3.091460    -2.762803
 H     6.672684    -4.521147    -2.079303
 H     2.033278     1.844922    -2.338884
 H     1.212825     2.230793    -0.840135
 C     3.356168     1.979789    -0.607161
 H     3.418656     1.500466     0.383666
 H     4.195358     1.574664    -1.197410
 C     3.531775     3.484487    -0.450280
 H     2.691821     3.882116     0.148113
 H     3.450791     3.972361    -1.438995
 C     4.848532     3.878431     0.203566
 H     4.926648     3.375731     1.184086
 H     5.686304     3.484729    -0.399326
 C     5.007619     5.379387     0.384043
 H     5.966675     5.633705     0.860418
 H     4.202724     5.791997     1.013439
 H     4.967428     5.904481    -0.583971
