  94
scf done:    -4500.886773
 C    -1.239007    -0.482527    -3.121560
 H    -1.057590    -1.258878    -3.874949
 H    -2.317693    -0.315798    -3.003050
 C    -0.427215     0.754945    -3.289993
 H     0.331637     0.714713    -4.082880
 H    -1.022398     1.677186    -3.384596
 H     0.160960     1.004538    -2.312717
Co    -0.109151    -0.533729    -1.526122
 C    -2.536819     1.691561    -0.885538
 C    -3.211821    -1.083230    -0.247771
 C    -1.719983     0.325281     1.539078
 C     1.698200    -0.717045     1.467437
 C     3.146889    -1.230281    -0.938135
 C     2.627091     1.360177    -0.361786
 P     1.701435    -0.245059    -0.313931
 P    -1.795374     0.105932    -0.290458
 C     0.192627    -2.184912    -1.822386
 O     0.289911    -3.320707    -2.039629
 C    -1.773871     2.863075    -0.693584
 O    -0.597273     2.689715    -0.060725
 C     0.147807     3.807926     0.335078
 H     1.054771     3.413461     0.803033
 H     0.441657     4.431403    -0.525027
 H    -0.414376     4.427770     1.056081
 C    -3.705690     1.802418    -1.668447
 O    -4.347630     0.661909    -1.969367
 C    -5.566238     0.688082    -2.655009
 H    -5.900117    -0.355023    -2.721614
 H    -5.455154     1.096864    -3.674428
 H    -6.327727     1.274575    -2.112616
 C    -4.153831     3.050873    -2.123662
 H    -5.071486     3.129224    -2.704933
 C    -2.217316     4.113526    -1.138840
 H    -1.632255     5.012837    -0.952813
 C    -3.413689     4.191878    -1.842447
 H    -3.768264     5.163214    -2.195014
 C    -4.332266    -0.839753     0.558165
 H    -4.382753     0.074455     1.155037
 C    -3.156245    -2.265770    -0.983952
 H    -2.279442    -2.470717    -1.598855
 C    -5.386905    -1.741959     0.608619
 H    -6.267408    -1.563997     1.228988
 C    -4.203561    -3.186955    -0.939152
 H    -4.169366    -4.118409    -1.507307
 C    -5.307679    -2.908802    -0.147551
 F    -6.315888    -3.780694    -0.099051
 C    -2.010693     1.493739     2.245113
 H    -2.298806     2.400486     1.711924
 C    -1.413624    -0.836953     2.262206
 H    -1.205690    -1.764776     1.722703
 C    -1.968882     1.515576     3.639814
 H    -2.196266     2.422637     4.203625
 C    -1.385397    -0.836300     3.650545
 H    -1.141062    -1.735646     4.216830
 C    -1.647660     0.351135     4.322651
 F    -1.580917     0.374601     5.656530
 C     1.668942     0.163159     2.566306
 O     1.507388     1.474091     2.310296
 C     1.582870     2.388418     3.370313
 H     1.475563     3.386788     2.929850
 H     0.769131     2.232141     4.097251
 H     2.555301     2.332059     3.888584
 C     1.667714    -2.103045     1.740932
 O     1.525067    -2.889183     0.666528
 C     1.618273    -4.283788     0.772787
 H     1.464661    -4.670066    -0.241430
 H     0.836582    -4.691663     1.435855
 H     2.610636    -4.591323     1.143867
 C     1.781806    -2.597943     3.043830
 H     1.794853    -3.670415     3.233261
 C     1.800189    -0.325498     3.874681
 H     1.803672     0.355715     4.723422
 C     1.871074    -1.693967     4.096318
 H     1.965800    -2.065604     5.119304
 C     3.222642    -1.452357    -2.314972
 H     2.391980    -1.124779    -2.945916
 C     4.201046    -1.664684    -0.127821
 H     4.164203    -1.504757     0.952588
 C     4.320487    -2.095972    -2.880807
 H     4.386758    -2.278064    -3.954949
 C     5.299999    -2.319774    -0.675112
 H     6.123945    -2.674544    -0.052979
 C     5.345951    -2.525250    -2.049670
 F     6.397359    -3.151877    -2.577572
 C     3.677627     1.633562     0.526158
 H     3.909782     0.930216     1.328331
 C     2.395577     2.260993    -1.401625
 H     1.600168     2.068004    -2.120335
 C     4.441653     2.787487     0.407447
 H     5.255847     3.008757     1.100081
 C     3.160579     3.418418    -1.547876
 H     2.980703     4.122874    -2.361973
 C     4.169500     3.672461    -0.632163
 F     4.899980     4.779968    -0.750314
