  84
scf done:    -3573.602925
 C     1.452056    -1.042345    -2.665659
 H     1.267096    -0.921524    -3.739835
 H     2.468832    -0.707230    -2.417859
 C     1.084404    -2.375881    -2.106909
 H     0.666938    -3.084657    -2.835221
 H     1.886082    -2.855074    -1.526137
 H     0.237742    -2.301751    -1.298842
Co    -0.029446    -0.581095    -1.476381
 C     2.766280    -0.571001     0.381442
 O     2.212928     1.653019    -0.871365
 O     0.755004     1.078610     1.162513
 C    -2.752688     0.631891     0.182938
 O    -2.853814    -1.866791    -0.475911
 O    -1.159911    -1.314865     1.347026
 P    -1.652579    -0.785634    -0.133318
 P     1.347018     0.402920    -0.224643
 C    -0.897054     0.238890    -2.721291
 O    -1.386035     0.907750    -3.527500
 C     2.448317    -1.744203     1.081113
 H     1.397002    -1.998187     1.252066
 C     4.100551    -0.236309     0.154334
 H     4.324855     0.679342    -0.398199
 C     3.470885    -2.551174     1.566090
 H     3.232808    -3.459967     2.124620
 C     5.139643    -1.048416     0.629632
 C     6.571332    -0.687673     0.357041
 H     6.837665    -0.899707    -0.691653
 H     6.753364     0.384518     0.524953
 H     7.261329    -1.256642     0.996113
 C     4.804877    -2.204078     1.341745
 H     5.602723    -2.846753     1.724686
 C     1.577433     2.595662    -1.739603
 H     0.496001     2.372362    -1.771860
 C     2.139520     2.439085    -3.136574
 H     1.933543     1.431530    -3.519419
 H     3.229158     2.598970    -3.130137
 H     1.682081     3.168929    -3.821063
 C     1.788746     3.984169    -1.170243
 H     1.358589     4.066431    -0.162211
 H     2.863736     4.212951    -1.103637
 H     1.313060     4.741212    -1.811711
 C     1.530281     1.877605     2.060203
 H     2.390595     2.292239     1.505489
 C     2.036274     1.043881     3.223169
 H     2.706255     0.243592     2.884403
 H     1.191676     0.584539     3.758307
 H     2.589265     1.679543     3.931407
 C     0.637441     3.013704     2.519195
 H     0.294619     3.614037     1.665276
 H    -0.252464     2.613315     3.028545
 H     1.173803     3.674721     3.216287
 C    -4.123036     0.480803     0.421286
 H    -4.569895    -0.513781     0.387092
 C    -2.190396     1.911658     0.169083
 H    -1.122488     2.013911    -0.028417
 C    -4.903265     1.606935     0.670750
 H    -5.975004     1.495712     0.853451
 C    -2.963398     3.049115     0.416018
 C    -2.340705     4.415170     0.418619
 H    -2.052334     4.716170     1.439587
 H    -1.432202     4.441486    -0.199984
 H    -3.036562     5.176874     0.037585
 C    -4.329026     2.876366     0.671283
 H    -4.955335     3.753419     0.858523
 C    -2.530694    -3.188289    -0.907613
 H    -1.514568    -3.442263    -0.548975
 C    -2.557006    -3.245325    -2.421844
 H    -1.840902    -2.520089    -2.833714
 H    -3.560787    -2.987617    -2.792331
 H    -2.294853    -4.251539    -2.782454
 C    -3.521493    -4.130076    -0.255315
 H    -3.468118    -4.056788     0.840553
 H    -4.546303    -3.877008    -0.567690
 H    -3.317854    -5.171440    -0.546084
 C    -2.035396    -1.479730     2.464257
 H    -3.071676    -1.576526     2.094130
 C    -1.933073    -0.269822     3.371902
 H    -2.214547     0.646186     2.834877
 H    -0.899286    -0.155241     3.729065
 H    -2.597160    -0.381971     4.242251
 C    -1.638350    -2.769740     3.152901
 H    -1.715211    -3.620091     2.459763
 H    -0.596676    -2.706674     3.504073
 H    -2.286260    -2.966202     4.020240
