  76
scf done:    -3344.615272
 C    -0.372300    -3.714121    -1.004612
 H     0.098394    -4.654184    -0.692840
 H    -1.463157    -3.825881    -0.983628
 C     0.176317    -3.132071    -2.267906
 H     0.981702    -3.717143    -2.733909
 H    -0.584182    -2.888446    -3.024492
 H     0.683981    -2.090975    -2.093771
Co     0.448341    -2.069624    -0.359390
 O    -1.331778     0.619731    -0.599244
 C    -3.000308    -1.569997    -0.591507
 C    -1.651029    -0.670026     1.797467
 O     1.363895     0.604692     1.073132
 C     3.510882    -0.710617     0.033254
 C     1.718008     0.759798    -1.696492
 P     1.730367    -0.374707    -0.247652
 P    -1.354928    -0.982889     0.011885
 C     1.264269    -2.934151     0.867510
 O     1.738237    -3.508865     1.754903
 C    -2.375054     1.488280    -0.642686
 C    -2.695760     2.286753     0.461034
 H    -2.107572     2.194799     1.375318
 C    -3.098925     1.625333    -1.831671
 H    -2.815304     1.014102    -2.690720
 C    -3.757864     3.185266     0.380276
 H    -4.006228     3.801566     1.247839
 C    -4.159481     2.524592    -1.902015
 H    -4.724898     2.619887    -2.832295
 C    -4.499342     3.302582    -0.794869
 H    -5.332946     4.005782    -0.851556
 H    -3.012784    -1.335793    -1.670961
 H    -2.950317    -2.669835    -0.537479
 C    -4.283378    -1.088204     0.078752
 H    -4.310260     0.010758     0.122298
 H    -4.300391    -1.435136     1.124918
 C    -5.524425    -1.591106    -0.642604
 H    -5.561264    -1.210670    -1.676105
 H    -5.542975    -2.691794    -0.694093
 H    -6.444581    -1.263504    -0.135261
 H    -0.774034    -0.090803     2.129290
 H    -2.544615    -0.038471     1.928121
 C    -1.776979    -1.954379     2.609533
 H    -0.875830    -2.567320     2.455137
 H    -2.619221    -2.559609     2.230440
 C    -1.973788    -1.684071     4.093060
 H    -1.128115    -1.110232     4.504168
 H    -2.890469    -1.101240     4.279303
 H    -2.050633    -2.621240     4.665006
 C     1.751330     1.902391     1.228737
 C     0.942188     2.926920     0.731053
 H     0.022133     2.661118     0.210308
 C     2.926593     2.206474     1.919342
 H     3.529552     1.391858     2.324684
 C     1.329161     4.253865     0.899271
 H     0.695924     5.051561     0.503301
 C     3.304732     3.538018     2.082217
 H     4.226410     3.773964     2.619776
 C     2.513785     4.565168     1.567600
 H     2.815406     5.606979     1.695904
 H     4.074738     0.233481     0.108404
 H     3.562312    -1.207496     1.016783
 C     4.087668    -1.620908    -1.045238
 H     4.076371    -1.098165    -2.017837
 H     3.416279    -2.489377    -1.160315
 C     5.499901    -2.088601    -0.732959
 H     6.191203    -1.237169    -0.627380
 H     5.526252    -2.657069     0.210000
 H     5.891834    -2.741233    -1.527753
 H     1.655337     0.084756    -2.568286
 H     0.733255     1.252883    -1.649852
 C     2.850877     1.761725    -1.892633
 H     3.794362     1.221371    -2.076894
 H     3.009903     2.347803    -0.975091
 C     2.571467     2.709760    -3.048698
 H     2.416927     2.161205    -3.991975
 H     1.662869     3.302832    -2.858113
 H     3.403713     3.413368    -3.201983
