  84
scf done:    -5935.407809
 C    -0.936090     2.476213    -3.038456
 H    -0.937015     2.336071    -4.124615
 H    -1.929528     2.795054    -2.697592
 C     0.204984     3.259225    -2.485177
 H     0.929496     3.603893    -3.234661
 H    -0.091104     4.082923    -1.820514
 H     0.878447     2.627517    -1.758291
Co     0.016050     1.126265    -1.996986
 O    -2.526702     2.066197    -0.186096
 O    -2.942422     0.179795    -1.742899
 O    -1.566625    -0.239358     0.396935
 O     1.361275    -1.396630    -0.600598
 O     2.995634     0.465628    -1.304769
 O     1.606176     0.732564     0.784741
 P     1.449570     0.225866    -0.782393
 P    -1.683940     0.799232    -0.896416
 C     0.290762     0.106365    -3.378117
 O     0.391130    -0.619647    -4.264683
 C    -1.843251     3.138712     0.319176
 C    -2.303595     4.416220    -0.003488
 H    -3.185535     4.515935    -0.639230
 C    -0.716339     2.973635     1.126950
 H    -0.366443     1.973065     1.383217
 C    -1.626487     5.533785     0.478179
 H    -1.988937     6.532952     0.225211
 C    -0.039317     4.100708     1.591543
 H     0.845620     3.968266     2.218871
 C    -0.486920     5.381169     1.269544
 H     0.045625     6.259533     1.640361
 C    -4.259346    -0.011341    -1.398214
 C    -5.110039     1.059069    -1.125601
 H    -4.725979     2.076514    -1.169682
 C    -4.744346    -1.318300    -1.375390
 H    -4.066512    -2.137544    -1.616767
 C    -6.431351     0.813223    -0.762934
 H    -7.104245     1.640034    -0.530164
 C    -6.061463    -1.566897    -1.009541
 H    -6.440519    -2.588183    -0.952333
 C    -6.897260    -0.497756    -0.688569
Cl    -8.528959    -0.803380    -0.192304
 C    -2.590698    -0.931311     0.993501
 C    -2.569066    -2.322905     0.918659
 H    -1.747107    -2.812583     0.393552
 C    -3.619276    -0.271965     1.667022
 H    -3.615868     0.816729     1.722718
 C    -3.605787    -3.062392     1.479027
 H    -3.611734    -4.151547     1.414749
 C    -4.665638    -1.008358     2.211198
 H    -5.498324    -0.507295     2.706620
 C    -4.660216    -2.398888     2.103962
Cl    -5.990339    -3.309867     2.736126
 C     1.707348    -2.142156     0.506837
 C     0.905388    -2.094185     1.646781
 H     0.041640    -1.430950     1.657682
 C     2.828509    -2.967431     0.453154
 H     3.434747    -2.996344    -0.452346
 C     1.241469    -2.876094     2.749804
 H     0.613649    -2.838163     3.643046
 C     3.155675    -3.741377     1.565134
 H     4.037098    -4.385500     1.525630
 C     2.369144    -3.697005     2.716081
 H     2.631117    -4.306309     3.583789
 C     3.974396    -0.471523    -1.505252
 C     3.862790    -1.385401    -2.553254
 H     2.983598    -1.363041    -3.199831
 C     5.093618    -0.475244    -0.674775
 H     5.165001     0.253174     0.133872
 C     4.865139    -2.330134    -2.753158
 H     4.788293    -3.057545    -3.562617
 C     6.098583    -1.415994    -0.876493
 H     6.977233    -1.435627    -0.230118
 C     5.975832    -2.345759    -1.908941
Cl     7.217529    -3.529265    -2.148612
 C     2.764983     1.114640     1.411351
 C     3.333171     2.353555     1.113074
 H     2.859767     2.994069     0.367070
 C     3.347664     0.280046     2.363173
 H     2.892996    -0.686088     2.583867
 C     4.499520     2.755031     1.756072
 H     4.959393     3.717174     1.525785
 C     4.510998     0.682948     3.013402
 H     4.979108     0.037734     3.758242
 C     5.086428     1.914505     2.702855
Cl     6.541827     2.407938     3.500639
