  90
scf done:    -3652.010025
 C    -1.309588    -0.100516    -2.826071
 H    -1.031590    -0.435457    -3.833209
 H    -2.280020    -0.531206    -2.545542
 C    -1.183079     1.370189    -2.602619
 H    -0.778443     1.936887    -3.452735
 H    -2.106100     1.851613    -2.242367
 H    -0.457271     1.609728    -1.720650
Co     0.117892    -0.034894    -1.503496
 C    -2.920271     0.155626     0.026645
 C    -1.540704    -2.485463    -0.108479
 C    -0.887263    -0.601559     1.903303
 C     2.358994    -0.101240     1.116671
 C     3.477350     0.933329    -1.295964
 C     1.605764     2.559123     0.067538
 P     1.832126     0.785809    -0.426849
 P    -1.255316    -0.664448     0.089406
 C     0.958415    -1.213046    -2.382424
 O     1.446135    -2.093213    -2.969953
 C    -3.003209     1.489829     0.479928
 O    -1.869632     2.009769     1.006593
 C    -1.886262     3.302906     1.537932
 H    -0.877196     3.491483     1.926507
 H    -2.115590     4.061494     0.769260
 H    -2.614024     3.398062     2.362516
 C    -4.073328    -0.378986    -0.583047
 O    -3.980201    -1.635324    -1.065890
 C    -5.055971    -2.202306    -1.754851
 H    -4.726857    -3.199228    -2.075227
 H    -5.327609    -1.612203    -2.647411
 H    -5.947475    -2.311253    -1.112423
 C    -5.258991     0.361855    -0.688720
 H    -6.143376    -0.071115    -1.153634
 C    -4.182670     2.236665     0.384618
 H    -4.228497     3.260990     0.751015
 C    -5.303962     1.659559    -0.198799
 H    -6.228289     2.236112    -0.279702
 H    -2.424519    -2.831788     0.447123
 H    -1.751409    -2.631947    -1.176109
 C    -0.291757    -3.266262     0.288217
 H    -0.227536    -3.343535     1.386592
 H     0.596351    -2.697740    -0.033553
 C    -0.254888    -4.655785    -0.327808
 H    -1.156112    -5.236000    -0.070706
 H    -0.198192    -4.591243    -1.425874
 H     0.617991    -5.231989     0.018846
 H     0.022101    -1.208873     2.031117
 H    -0.596951     0.431553     2.132118
 C    -1.976738    -1.077660     2.850684
 H    -2.229126    -2.129257     2.632372
 H    -2.901672    -0.504258     2.670190
 C    -1.567551    -0.949164     4.310760
 H    -0.640018    -1.508296     4.515220
 H    -1.380083     0.104444     4.576614
 H    -2.346969    -1.327545     4.990414
 C     2.181894     0.336446     2.443701
 O     1.631118     1.557488     2.625836
 C     1.417357     2.035815     3.922135
 H     0.977328     3.036248     3.815641
 H     0.716303     1.395856     4.485388
 H     2.359344     2.122799     4.490915
 C     2.861205    -1.409727     0.935609
 O     2.982294    -1.812453    -0.341785
 C     3.390217    -3.119847    -0.644765
 H     3.299677    -3.216814    -1.732693
 H     2.734320    -3.866703    -0.167795
 H     4.433630    -3.299041    -0.333041
 C     3.200597    -2.231985     2.015733
 H     3.589924    -3.235256     1.849657
 C     2.524988    -0.477166     3.531799
 H     2.384169    -0.126549     4.552760
 C     3.029069    -1.751919     3.307276
 H     3.290207    -2.385007     4.158442
 H     3.983202     1.818988    -0.873193
 H     4.082552     0.060606    -1.018738
 C     3.392883     1.028411    -2.813430
 H     2.658447     1.794565    -3.111514
 H     2.997492     0.080228    -3.206222
 C     4.741951     1.332234    -3.446586
 H     5.139516     2.302634    -3.106035
 H     5.487112     0.563706    -3.183991
 H     4.673140     1.366916    -4.544765
 H     0.652263     2.599493     0.609655
 H     2.396253     2.846563     0.776217
 C     1.582082     3.524923    -1.111441
 H     0.877463     3.170716    -1.880660
 H     2.571020     3.548176    -1.597473
 C     1.200844     4.935217    -0.686165
 H     0.189758     4.959099    -0.249060
 H     1.897138     5.326005     0.073449
 H     1.211009     5.631955    -1.538348
