  84
scf done:    -4494.296434
 C    -1.819980    -0.746899     3.790489
 H    -1.843201    -0.101252     4.674816
 H    -2.836350    -1.050544     3.514799
 C    -0.802892    -1.833595     3.814133
 H    -0.182895    -1.868927     4.719528
 H    -1.204172    -2.832318     3.589434
 H     0.003935    -1.718721     2.965198
Co    -0.607541    -0.197924     2.361169
 O    -2.734826    -1.868650     0.476204
 O    -3.565596     0.225926     1.439886
 O    -2.009703     0.216182    -0.583514
 O     1.051013     0.911988    -0.114529
 O     2.465643     0.329054     1.951453
 O     1.590897    -1.490435     0.394930
 P     1.095424    -0.112238     1.151221
 P    -2.122668    -0.404364     0.959645
 C    -0.381725     1.368498     3.063911
 O    -0.333861     2.454503     3.444755
 C    -2.035309    -2.722685    -0.335551
 C    -2.419584    -2.838389    -1.671816
 H    -3.246857    -2.225105    -2.032753
 C    -0.977703    -3.476833     0.170349
 H    -0.688391    -3.356823     1.214246
 C    -1.743165    -3.728993    -2.502087
 H    -2.045591    -3.827382    -3.547469
 C    -0.300442    -4.355391    -0.672955
 H     0.537259    -4.937010    -0.281912
 C    -0.681321    -4.487034    -2.007081
 H    -0.145359    -5.174959    -2.664197
 C    -4.720809     0.160315     0.692382
 C    -5.555692    -0.950941     0.805013
 H    -5.258137    -1.776296     1.452189
 C    -5.068898     1.224967    -0.136528
 H    -4.404509     2.086685    -0.214723
 C    -6.746614    -0.998081     0.086936
 H    -7.419399    -1.854631     0.156301
 C    -6.259687     1.181505    -0.857454
 H    -6.556691     2.001867    -1.513018
 C    -7.083514     0.069539    -0.737356
 F    -8.223306     0.024605    -1.427267
 C    -1.641789     1.494739    -0.894642
 C    -1.743736     2.555720     0.007839
 H    -2.142972     2.394445     1.010059
 C    -1.148866     1.716398    -2.181121
 H    -1.076489     0.873429    -2.869708
 C    -1.321404     3.829059    -0.370735
 H    -1.376527     4.667804     0.325249
 C    -0.733264     2.987474    -2.561248
 H    -0.327182     3.177856    -3.555992
 C    -0.814526     4.030807    -1.646398
 F    -0.394099     5.245878    -2.000254
 C     1.867358     1.955187    -0.462393
 C     2.561108     1.878847    -1.667912
 H     2.470755     0.978427    -2.277200
 C     1.950977     3.082996     0.351457
 H     1.390138     3.118269     1.286725
 C     3.355878     2.953163    -2.060090
 H     3.902181     2.900067    -3.004655
 C     2.753775     4.148200    -0.051377
 H     2.823652     5.035873     0.581231
 C     3.456843     4.088035    -1.254737
 H     4.080100     4.928567    -1.567058
 C     3.749590    -0.083939     1.685816
 C     4.628471     0.750296     0.996185
 H     4.286899     1.724657     0.646364
 C     4.175357    -1.325994     2.157443
 H     3.472816    -1.959665     2.700476
 C     5.933785     0.328798     0.756889
 H     6.640540     0.960428     0.216183
 C     5.479503    -1.750672     1.919435
 H     5.837242    -2.718842     2.273916
 C     6.342798    -0.917574     1.216018
 F     7.590207    -1.321667     0.983225
 C     1.965278    -1.585304    -0.927892
 C     3.299517    -1.822448    -1.249892
 H     4.039814    -1.905993    -0.453951
 C     1.001449    -1.471795    -1.929159
 H    -0.039498    -1.291661    -1.657717
 C     3.676133    -1.943587    -2.586060
 H     4.714220    -2.128958    -2.866898
 C     1.374903    -1.588511    -3.263559
 H     0.638596    -1.510678    -4.065294
 C     2.709750    -1.821305    -3.576836
 F     3.068363    -1.934550    -4.855557
