  60
scf done:    -3259.302132
 C    -0.670112    -3.223761     1.201621
 H    -0.031416    -4.042127     1.553538
 H    -1.401350    -2.932789     1.962190
 C    -1.197237    -3.389917    -0.181228
 H    -0.889596    -4.315326    -0.688578
 H    -2.285459    -3.261286    -0.275453
 H    -0.797961    -2.561331    -0.917730
Co     0.209739    -1.755608     0.261098
 C    -2.091181     0.857284     0.330178
 O    -1.841233    -0.736165     2.462774
 O    -0.037579     1.011814     1.900007
 C     2.306260     0.692842    -0.728104
 O     2.069726    -1.368207    -2.327901
 O     0.187758     0.405503    -2.205319
 P     1.116056    -0.562204    -1.253534
 P    -0.899073    -0.217292     1.208460
 C     1.702296    -2.244661     0.948360
 O     2.669341    -2.530353     1.514949
 C    -1.843539     2.197039     0.031043
 H    -0.937920     2.670135     0.413146
 C    -3.266910     0.254617    -0.136628
 H    -3.459448    -0.796751     0.103779
 C    -2.758514     2.912073    -0.742321
 H    -2.563174     3.959853    -0.984658
 C    -4.199214     0.960642    -0.898553
 C    -5.466268     0.312652    -1.376844
 H    -5.601503     0.448579    -2.461134
 H    -5.471507    -0.765945    -1.166060
 H    -6.348161     0.753663    -0.884556
 C    -3.920537     2.301195    -1.204329
 H    -4.629743     2.872224    -1.810470
 C    -2.577267     0.168859     3.255417
 H    -1.953344     1.016929     3.579744
 H    -3.448768     0.565981     2.708241
 H    -2.929254    -0.379824     4.140340
 C     1.157389     0.722420     2.598011
 H     1.012803    -0.088021     3.330650
 H     1.968246     0.439527     1.910733
 H     1.446597     1.638865     3.130589
 C     3.592375     0.297805    -0.340615
 H     3.906692    -0.739820    -0.466835
 C     1.909019     2.020541    -0.572756
 H     0.908940     2.312865    -0.897696
 C     4.458776     1.237075     0.207756
 H     5.464968     0.937192     0.509933
 C     2.768999     2.971192    -0.011856
 C     2.306782     4.387023     0.176424
 H     1.486093     4.437557     0.910751
 H     3.118697     5.034647     0.535776
 H     1.924580     4.810771    -0.765206
 C     4.046933     2.559420     0.378008
 H     4.733196     3.287409     0.819701
 C     1.818534    -2.717817    -2.640085
 H     1.478873    -3.271649    -1.747765
 H     1.055814    -2.812532    -3.432364
 H     2.756979    -3.159229    -3.003991
 C    -1.030745    -0.060673    -2.731103
 H    -0.877374    -0.518054    -3.723105
 H    -1.500485    -0.799200    -2.059815
 H    -1.712839     0.795710    -2.827694
