  88
scf done:    -5863.589078
 C    -1.391673    -0.802742     3.504997
 H    -1.368930    -0.251541     4.451339
 H    -2.432655    -0.978903     3.204819
 C    -0.484461    -1.984551     3.431739
 H     0.168308    -2.118747     4.303336
 H    -0.985803    -2.936109     3.197361
 H     0.263256    -1.913837     2.534043
Co    -0.121756    -0.250350     2.131227
 C    -2.779012    -1.134511     0.024806
 O    -2.743811     1.170374     1.456868
 O    -1.365977     0.892896    -0.695169
 C     2.637967     1.073279     0.440483
 O     2.677621    -1.432644     1.425280
 O     1.337975    -0.869052    -0.713568
 P     1.557328    -0.320661     0.850250
 P    -1.658585     0.099240     0.755658
 C     0.303435     1.129094     3.083007
 O     0.439488     2.110500     3.674079
 C    -3.585356    -0.878955    -1.090743
 H    -3.530889     0.087320    -1.593913
 C    -2.842703    -2.382029     0.649210
 H    -2.182399    -2.587491     1.493589
 C    -4.448257    -1.868775    -1.549953
 H    -5.081607    -1.674229    -2.418909
 C    -3.714730    -3.380747     0.206642
 C    -3.752291    -4.723027     0.874106
 H    -3.270903    -4.696361     1.861955
 H    -4.785201    -5.078407     1.006256
 H    -3.226974    -5.471454     0.258376
 C    -4.516993    -3.103042    -0.905209
 H    -5.199971    -3.871091    -1.278113
 C    -3.914324     1.563102     0.872166
 C    -3.934079     2.641681    -0.013024
 H    -3.006015     3.169180    -0.239559
 C    -5.096178     0.889083     1.182172
 H    -5.059118     0.044451     1.872198
 C    -5.133462     3.037918    -0.598021
 H    -5.162106     3.879214    -1.292233
 C    -6.297037     1.282629     0.602025
 H    -7.225941     0.759228     0.833153
 C    -6.308549     2.352877    -0.291843
Cl    -7.801431     2.839813    -1.026978
 C    -0.540091     1.958415    -0.858417
 C    -0.225544     2.850616     0.170132
 H    -0.656469     2.721477     1.162742
 C    -0.020868     2.164375    -2.139696
 H    -0.294949     1.471972    -2.936932
 C     0.639786     3.914268    -0.074821
 H     0.905327     4.600025     0.730591
 C     0.826589     3.235384    -2.389913
 H     1.235240     3.398820    -3.388286
 C     1.165789     4.100158    -1.349131
Cl     2.247386     5.422396    -1.651351
 C     3.066179     1.897247     1.486736
 H     2.699691     1.742808     2.502539
 C     3.125172     1.284365    -0.852833
 H     2.788490     0.634521    -1.661184
 C     3.970693     2.922736     1.227590
 H     4.304014     3.569519     2.042419
 C     4.030555     2.312922    -1.122787
 C     4.517994     2.563903    -2.518040
 H     5.614410     2.654604    -2.550320
 H     4.221620     1.755166    -3.200097
 H     4.100099     3.509099    -2.901918
 C     4.446364     3.128582    -0.064007
 H     5.148529     3.943292    -0.259368
 C     3.932719    -1.541091     0.878829
 C     5.009590    -0.947872     1.536954
 H     4.829562    -0.406627     2.466696
 C     4.134530    -2.235377    -0.314083
 H     3.288667    -2.699632    -0.822454
 C     6.289253    -1.036850     1.000500
 H     7.137843    -0.570578     1.503155
 C     5.414334    -2.327641    -0.854110
 H     5.585577    -2.866318    -1.787316
 C     6.484660    -1.722992    -0.197662
Cl     8.075828    -1.826010    -0.876619
 C     0.538860    -1.929479    -1.022553
 C     0.540757    -3.111597    -0.275590
 H     1.185933    -3.203251     0.599296
 C    -0.268795    -1.820971    -2.154450
 H    -0.266903    -0.884794    -2.711573
 C    -0.266021    -4.177735    -0.665258
 H    -0.267206    -5.106577    -0.092702
 C    -1.073380    -2.883498    -2.545495
 H    -1.716667    -2.800888    -3.422092
 C    -1.067368    -4.059568    -1.798155
Cl    -2.062742    -5.390149    -2.294249
