  92
scf done:    -3953.866485
 C     0.785186     1.058057    -3.203968
 H     0.675802     2.031625    -3.694728
 H     1.831697     0.725873    -3.262801
 C    -0.219273     0.025441    -3.597492
 H    -0.999327     0.376127    -4.286554
 H     0.215913    -0.908977    -3.983753
 H    -0.828276    -0.373271    -2.679187
Co    -0.190312     0.795137    -1.534125
 O     1.356314     0.247245     1.150782
 C     2.766275    -0.908464    -0.912163
 C     2.663397     1.937168    -0.512626
 O    -1.923346     1.007909     1.197892
 C    -3.164481    -0.488169    -0.749072
 C    -1.071549    -1.505651     0.868895
 P    -1.527218    -0.012305    -0.079588
 P     1.602126     0.448275    -0.506413
 C    -0.685046     2.448553    -1.434195
 O    -0.841812     3.583482    -1.270511
 C     2.296982    -0.168241     2.046127
 C     2.432299    -1.533764     2.304906
 H     1.796299    -2.235367     1.764160
 C     3.096788     0.758593     2.718099
 H     2.977727     1.820966     2.502807
 C     3.371033    -1.970642     3.234692
 H     3.472469    -3.040410     3.433448
 C     4.037659     0.309896     3.643790
 H     4.663669     1.036346     4.167865
 C     4.180782    -1.052767     3.904290
 H     4.919324    -1.398020     4.631405
 C     4.058733    -1.023207    -0.383388
 H     4.457455    -0.248861     0.274939
 C     2.282058    -1.915441    -1.751570
 H     1.270897    -1.808031    -2.152951
 C     4.829716    -2.141647    -0.688249
 H     5.831051    -2.241091    -0.262549
 C     3.048668    -3.037351    -2.080555
 C     2.523609    -4.081816    -3.022715
 H     1.424391    -4.084069    -3.048346
 H     2.875329    -3.896870    -4.051430
 H     2.861543    -5.089993    -2.740381
 C     4.329479    -3.137986    -1.525069
 H     4.947309    -4.010987    -1.755115
 C     3.798641     2.076155    -1.317521
 H     4.166909     1.231161    -1.903122
 C     2.198850     3.039183     0.213570
 H     1.293338     2.933031     0.818661
 C     4.460026     3.301490    -1.370664
 H     5.349344     3.410794    -1.996371
 C     2.850820     4.273625     0.166915
 C     2.305449     5.442174     0.935076
 H     1.288469     5.687992     0.590259
 H     2.235977     5.218110     2.011188
 H     2.932721     6.336316     0.813832
 C     3.993118     4.387933    -0.634419
 H     4.516811     5.346366    -0.688489
 C    -3.160971     1.554634     1.395003
 C    -4.140590     0.840729     2.088430
 H    -3.915143    -0.165313     2.446024
 C    -3.425832     2.843354     0.929798
 H    -2.646270     3.383985     0.391266
 C    -5.388787     1.417533     2.309242
 H    -6.153366     0.854980     2.850694
 C    -4.677870     3.411138     1.156969
 H    -4.883081     4.419907     0.790426
 C    -5.663577     2.702670     1.843060
 H    -6.644155     3.151747     2.015932
 C    -3.689760     0.285167    -1.790011
 H    -3.095991     1.107884    -2.196150
 C    -3.914176    -1.552774    -0.236014
 H    -3.500461    -2.163390     0.570784
 C    -4.955132    -0.002593    -2.294570
 H    -5.368203     0.602403    -3.105211
 C    -5.184229    -1.853016    -0.734531
 C    -5.994846    -2.973544    -0.150777
 H    -6.736277    -2.586367     0.568035
 H    -6.550459    -3.518943    -0.928079
 H    -5.359585    -3.692247     0.386032
 C    -5.693147    -1.060919    -1.771666
 H    -6.684847    -1.281740    -2.177012
 C    -1.162202    -1.572893     2.260476
 H    -1.484948    -0.694144     2.820672
 C    -0.610382    -2.611451     0.151401
 H    -0.531849    -2.547609    -0.937848
 C    -0.817462    -2.754887     2.912818
 H    -0.884747    -2.812235     4.001826
 C    -0.247568    -3.799271     0.793929
 C     0.304657    -4.952734     0.009021
 H    -0.222146    -5.078749    -0.948567
 H     1.368896    -4.782678    -0.225559
 H     0.232004    -5.896319     0.568030
 C    -0.370068    -3.857690     2.187984
 H    -0.094321    -4.776745     2.712468
