  70
scf done:    -3638.500730
 C     1.738201    -2.897090     1.559358
 H     1.342508    -3.891882     1.798763
 H     2.698552    -2.963589     1.038377
 C     1.700909    -1.920043     2.686228
 H     1.327957    -2.321703     3.639704
 H     2.647474    -1.384712     2.844634
 H     0.951504    -1.040141     2.488544
Co     0.463090    -1.577865     0.893945
 C     1.992786     1.088033    -0.765377
 O     3.398060    -1.208213    -0.253655
 O     1.674071    -1.154130    -2.083774
 C    -2.502917     0.182039    -0.024761
 O    -1.678962    -0.066299     2.540514
 O    -0.547595     1.534020     1.031373
 P    -1.011973    -0.037817     1.018778
 P     1.834747    -0.725924    -0.488539
 C    -0.596657    -2.862236     0.502993
 O    -1.236125    -3.775722     0.185204
 C     1.054053     1.772018    -1.564226
 O     0.080357     1.026991    -2.106047
 C    -0.920250     1.643942    -2.863489
 H    -1.587064     0.844892    -3.206960
 H    -1.507354     2.355032    -2.257313
 H    -0.504113     2.165852    -3.742685
 C     2.910143     1.862972    -0.030217
 O     3.657704     1.206118     0.883920
 C     4.580565     1.911988     1.660928
 H     5.053077     1.176725     2.324579
 H     4.091607     2.688297     2.275661
 H     5.361810     2.388254     1.042697
 C     3.004386     3.248673    -0.212240
 H     3.743436     3.835825     0.330677
 C     1.128628     3.160366    -1.738681
 H     0.411553     3.680963    -2.371119
 C     2.117552     3.877584    -1.078404
 H     2.182635     4.959040    -1.220894
 C     4.430717    -0.877517    -1.147753
 H     4.054599    -0.759297    -2.176739
 H     4.928564     0.056072    -0.839669
 H     5.169353    -1.693530    -1.128430
 C     1.601860    -2.526594    -2.372658
 H     2.603965    -2.991326    -2.377762
 H     0.980560    -3.062997    -1.635862
 H     1.161447    -2.637015    -3.374463
 C    -3.486866     1.135873     0.340072
 O    -3.253660     1.866734     1.435862
 C    -4.192935     2.806920     1.865395
 H    -3.783279     3.255722     2.779022
 H    -4.352079     3.603468     1.117218
 H    -5.165952     2.341293     2.101892
 C    -2.728544    -0.586650    -1.185861
 O    -1.762289    -1.435297    -1.552843
 C    -1.999451    -2.363087    -2.573819
 H    -1.135086    -3.034774    -2.585848
 H    -2.088922    -1.871117    -3.558315
 H    -2.906218    -2.958819    -2.377905
 C    -3.906283    -0.440022    -1.935464
 H    -4.075977    -1.043776    -2.825263
 C    -4.654848     1.291437    -0.419984
 H    -5.409128     2.023571    -0.136446
 C    -4.850503     0.497268    -1.542836
 H    -5.764567     0.616096    -2.130025
 C    -2.245253    -1.249891     3.036767
 H    -1.508925    -2.070446     3.076721
 H    -2.610865    -1.039362     4.052201
 H    -3.099316    -1.584398     2.420042
 C     0.386864     1.951634     1.995789
 H    -0.089945     2.044797     2.984829
 H     1.232268     1.244798     2.070426
 H     0.775450     2.927341     1.674638
