  96
scf done:    -3882.046913
 C    -0.492372     2.523355    -2.954370
 H    -0.007268     2.732593    -3.915407
 H    -1.581856     2.556595    -3.075415
 C     0.047693     3.293609    -1.800287
 H     0.882111     3.969215    -2.030839
 H    -0.707025     3.837191    -1.212024
 H     0.495769     2.602867    -0.967679
Co     0.301066     1.115055    -1.871486
 C    -1.815956     0.707478     0.856932
 C    -3.096830     0.940693    -1.740691
 C    -1.681788    -1.520365    -1.088204
 C     1.915498    -1.519503    -0.294567
 C     3.572333     0.471071    -1.385754
 C     2.103572     1.010053     1.077443
 P     1.866123     0.289933    -0.618345
 P    -1.522244     0.340084    -0.916724
 C     0.825852     0.345026    -3.286722
 O     1.117329    -0.218486    -4.260840
 C    -1.271567    -0.100267     1.866532
 H    -0.749894    -1.024269     1.612927
 C    -2.442540     1.902522     1.235088
 H    -2.823314     2.581615     0.468006
 C    -1.403753     0.261720     3.204632
 H    -0.985976    -0.385503     3.979699
 C    -2.585351     2.279763     2.573975
 C    -3.297012     3.550976     2.937661
 H    -2.888235     3.993349     3.857920
 H    -3.221971     4.298473     2.134326
 H    -4.370172     3.367025     3.114648
 C    -2.063330     1.436234     3.561194
 H    -2.161210     1.710269     4.615058
 H    -2.865867     0.814708    -2.809256
 H    -3.136200     2.027465    -1.571713
 C    -4.398128     0.285616    -1.407249
 C    -5.184322     0.702039    -0.322802
 H    -4.860699     1.547768     0.285158
 C    -4.859209    -0.793404    -2.175634
 H    -4.283936    -1.113325    -3.048938
 C    -6.365591     0.039593     0.002594
 H    -6.956743     0.379754     0.856369
 C    -6.036921    -1.461429    -1.849312
 H    -6.367021    -2.305792    -2.458960
 C    -6.792504    -1.052585    -0.751991
 H    -7.715283    -1.576144    -0.491972
 H    -0.687374    -1.848608    -1.413337
 H    -2.346768    -1.647653    -1.957363
 C    -2.137719    -2.389661     0.049316
 C    -3.374858    -2.230893     0.685496
 H    -4.056552    -1.446241     0.361057
 C    -1.283067    -3.399542     0.509083
 H    -0.315304    -3.538159     0.025066
 C    -3.738311    -3.050454     1.750713
 H    -4.708043    -2.901833     2.232052
 C    -1.642788    -4.218284     1.577806
 H    -0.953776    -4.997053     1.915638
 C    -2.873927    -4.044851     2.207426
 H    -3.160232    -4.682160     3.047707
 C     1.821554    -2.375715    -1.403992
 H     1.645143    -1.966901    -2.401858
 C     2.134336    -2.075150     0.966792
 H     2.220730    -1.430906     1.843933
 C     1.981775    -3.747492    -1.241253
 H     1.921641    -4.406435    -2.110678
 C     2.274081    -3.458137     1.149024
 C     2.469072    -4.020205     2.526068
 H     3.217106    -3.444111     3.091329
 H     1.526332    -3.982368     3.096903
 H     2.797265    -5.068481     2.492729
 C     2.211059    -4.285700     0.025914
 H     2.331726    -5.365775     0.144855
 H     3.702139     1.547830    -1.570162
 H     3.469747     0.000872    -2.375500
 C     4.709570    -0.120442    -0.611827
 C     5.052770    -1.471032    -0.770692
 H     4.512026    -2.078404    -1.499229
 C     5.433920     0.633596     0.322072
 H     5.208247     1.694059     0.455585
 C     6.064633    -2.050455    -0.010707
 H     6.308084    -3.106051    -0.153703
 C     6.448997     0.057298     1.083961
 H     6.998856     0.669659     1.802814
 C     6.764589    -1.290482     0.925558
 H     7.559216    -1.744431     1.522387
 H     3.096733     0.708705     1.448454
 H     1.344839     0.531885     1.713254
 C     1.912365     2.498215     1.138605
 C     0.783072     3.020630     1.779261
 H     0.074154     2.337937     2.248566
 C     2.810424     3.398277     0.549156
 H     3.701280     3.027172     0.040673
 C     0.549483     4.393143     1.821040
 H    -0.343289     4.770448     2.326077
 C     2.581198     4.771812     0.590152
 H     3.295523     5.452556     0.120744
 C     1.445904     5.276393     1.222832
 H     1.264317     6.353340     1.251362
