 100
scf done:    -4182.850156
 C     0.853998     0.822499    -3.647348
 H     1.903622     1.093061    -3.493158
 H     0.715216     0.310039    -4.606265
 C    -0.122980     1.917164    -3.372680
 H     0.345596     2.873484    -3.097332
 H    -0.868889     2.078695    -4.162869
 H    -0.781836     1.703335    -2.430089
Co    -0.134316     0.106669    -2.118468
 C    -2.757547     1.042778    -0.098563
 O    -2.760224    -1.388202    -1.263954
 O    -1.287163    -0.906921     0.784267
 C     2.635601    -1.014599    -0.531200
 O     2.564664     1.577133    -1.281917
 O     1.310747     0.783769     0.805500
 P     1.493127     0.367922    -0.809102
 P    -1.655363    -0.268839    -0.705053
 C    -0.394984    -1.338925    -3.009902
 O    -0.470193    -2.335193    -3.586538
 C    -3.227191     1.086244     1.215150
 H    -2.873870     0.353060     1.939690
 C    -3.211558     1.983358    -1.029647
 H    -2.848314     1.939546    -2.060803
 C    -4.150055     2.064359     1.577523
 H    -4.524363     2.099751     2.603416
 C    -4.129128     2.973871    -0.676007
 C    -4.585923     3.999847    -1.671975
 H    -4.328028     3.707056    -2.699483
 H    -5.674658     4.152605    -1.623052
 H    -4.112810     4.976609    -1.476971
 C    -4.597906     2.994250     0.644486
 H    -5.326975     3.753565     0.942529
 C    -3.887785    -1.726099    -0.554977
 C    -3.832968    -2.703323     0.436519
 H    -2.884514    -3.196834     0.655162
 C    -5.095046    -1.092150    -0.845441
 H    -5.117240    -0.322860    -1.618957
 C    -4.990886    -3.037118     1.134949
 H    -4.939085    -3.803472     1.913375
 C    -6.242148    -1.436558    -0.138571
 H    -7.182984    -0.928976    -0.369173
 C    -6.213745    -2.413284     0.864574
 C    -7.463188    -2.798564     1.602811
 H    -7.232508    -3.239736     2.583198
 H    -8.045117    -3.544910     1.036189
 H    -8.119627    -1.930717     1.765016
 C    -0.412378    -1.932667     1.007879
 C    -0.133170    -2.918010     0.058951
 H    -0.624788    -2.907485    -0.913718
 C     0.186645    -1.992029     2.264832
 H    -0.060415    -1.225551     2.999466
 C     0.774271    -3.927580     0.367618
 H     0.994840    -4.683267    -0.390716
 C     1.080637    -3.015325     2.558849
 H     1.543310    -3.050010     3.549297
 C     1.402549    -3.997640     1.614782
 C     2.390329    -5.084525     1.919286
 H     3.325751    -4.928511     1.357319
 H     2.001707    -6.074286     1.634548
 H     2.641990    -5.113844     2.989018
 C     2.868539    -1.873898    -1.611353
 H     2.298341    -1.750064    -2.535035
 C     3.341930    -1.184108     0.659493
 H     3.145674    -0.509431     1.494528
 C     3.823646    -2.877191    -1.494997
 H     4.014502    -3.548105    -2.335975
 C     4.300212    -2.194634     0.789538
 C     5.038431    -2.363919     2.084200
 H     5.511685    -1.419726     2.395392
 H     4.347919    -2.662586     2.890044
 H     5.821641    -3.131382     2.009220
 C     4.536216    -3.031338    -0.305135
 H     5.289931    -3.820059    -0.223800
 C     3.770855     1.774095    -0.661207
 C     3.857485     2.588289     0.466672
 H     2.956859     3.070647     0.850645
 C     4.915309     1.153439    -1.162118
 H     4.828480     0.505923    -2.036339
 C     5.089637     2.769541     1.090782
 H     5.147617     3.406336     1.978072
 C     6.137897     1.343935    -0.527464
 H     7.026749     0.844231    -0.922795
 C     6.250012     2.151892     0.611239
 C     7.579196     2.369917     1.275190
 H     7.460434     2.678194     2.323965
 H     8.154585     3.160225     0.764235
 H     8.194268     1.457802     1.255287
 C     0.496640     1.790360     1.224500
 C     0.098938     2.845818     0.397430
 H     0.458106     2.898490    -0.630257
 C     0.074909     1.765260     2.553880
 H     0.413606     0.950884     3.195124
 C    -0.746676     3.832116     0.896855
 H    -1.059246     4.643047     0.233079
 C    -0.758681     2.767054     3.038671
 H    -1.083498     2.730365     4.082248
 C    -1.196705     3.814836     2.220440
 C    -2.114872     4.883970     2.734643
 H    -3.081505     4.857001     2.206212
 H    -1.688531     5.888546     2.585546
 H    -2.316385     4.759880     3.808098
