  96
scf done:    -4254.506487
 C    -0.813547    -2.912970    -1.834076
 H    -0.270978    -3.865520    -1.867970
 H    -1.898348    -3.067311    -1.780156
 C    -0.358503    -1.880985    -2.784441
 H     0.492311    -2.154104    -3.424475
 H    -1.160188    -1.424840    -3.384911
 H     0.030334    -0.882008    -2.236699
Co    -0.037663    -1.522355    -0.710474
 O    -1.668121     1.194592    -0.975995
 C    -3.316635    -0.943402    -0.870791
 C    -2.054910     0.045498     1.591302
 O     2.102264    -0.279690     1.270691
 C     3.274954    -1.248711    -1.008248
 C     1.895522     1.250682    -1.080800
 P     1.758674    -0.430183    -0.361039
 P    -1.748173    -0.298493    -0.193062
 C     0.176142    -2.677459     0.526624
 O     0.227452    -3.456957     1.379526
 C    -2.416733     2.323557    -0.956868
 C    -1.948274     3.371216    -1.761366
 H    -1.041229     3.207826    -2.344939
 C    -3.586445     2.488503    -0.213311
 H    -3.985347     1.660577     0.370379
 C    -2.628368     4.583653    -1.792580
 H    -2.250493     5.394126    -2.421339
 C    -4.256295     3.711816    -0.253272
 H    -5.170297     3.832961     0.334025
 C    -3.784101     4.766781    -1.030762
 H    -4.316943     5.719862    -1.053400
 C    -3.922959    -0.418964    -2.009997
 H    -3.545861     0.511736    -2.437865
 C    -3.788143    -2.166326    -0.352612
 O    -3.128009    -2.613407     0.731988
 C    -3.296930    -3.934184     1.164089
 H    -4.296503    -4.096281     1.605076
 H    -2.528675    -4.109163     1.927175
 H    -3.148083    -4.648908     0.336609
 C    -5.005409    -1.068975    -2.609396
 H    -5.475495    -0.638407    -3.495992
 C    -4.863947    -2.824137    -0.948464
 H    -5.229580    -3.768518    -0.543135
 C    -5.472838    -2.264459    -2.075228
 H    -6.316092    -2.781724    -2.539417
 C    -0.897698     0.130822     2.373378
 H     0.074549     0.047603     1.887294
 C    -3.302260     0.089681     2.254711
 O    -4.414080    -0.009646     1.500951
 C    -5.662785    -0.201980     2.100533
 H    -5.656028    -1.078369     2.771135
 H    -6.371221    -0.381931     1.281682
 H    -5.989432     0.684515     2.672119
 C    -0.949801     0.300881     3.755201
 H    -0.022216     0.365653     4.327543
 C    -3.359097     0.241678     3.644290
 H    -4.323152     0.276161     4.152005
 C    -2.186565     0.354215     4.387903
 H    -2.250641     0.473066     5.472540
 C     3.278197     0.030475     1.883502
 C     3.529779     1.343598     2.283909
 H     2.786828     2.107026     2.053788
 C     4.192851    -0.985040     2.166358
 H     3.961043    -2.005674     1.857095
 C     4.712252     1.639784     2.956583
 H     4.908878     2.667384     3.273237
 C     5.376412    -0.675702     2.833692
 H     6.093384    -1.470776     3.053217
 C     5.642665     0.635418     3.229072
 H     6.568729     0.872639     3.757815
 C     3.124064    -2.555217    -1.477916
 H     2.114822    -2.977863    -1.450318
 C     4.565944    -0.670747    -1.018935
 O     4.668863     0.587721    -0.573653
 C     5.924838     1.194774    -0.459564
 H     6.586745     0.624465     0.213435
 H     5.747067     2.185107    -0.023567
 H     6.410376     1.313333    -1.443858
 C     4.207648    -3.296920    -1.945328
 H     4.062839    -4.317983    -2.303290
 C     5.657203    -1.413204    -1.484045
 H     6.656751    -0.978349    -1.487398
 C     5.471962    -2.717185    -1.942083
 H     6.336728    -3.281712    -2.300342
 C     2.428805     1.392058    -2.364395
 H     2.851212     0.514328    -2.860897
 C     1.327173     2.381868    -0.461754
 O     0.762505     2.198077     0.745390
 C     0.088994     3.261449     1.369423
 H     0.785934     4.071190     1.649106
 H    -0.364795     2.843846     2.276584
 H    -0.707573     3.669002     0.726572
 C     2.445532     2.621478    -3.018809
 H     2.870091     2.703249    -4.021429
 C     1.375304     3.626649    -1.099825
 H     0.953387     4.506538    -0.614915
 C     1.930841     3.741184    -2.372104
 H     1.950505     4.718557    -2.860617
