  84
scf done:    -4097.528715
 C    -1.388608    -2.728840    -2.705497
 H    -1.172064    -3.798437    -2.806205
 H    -2.465732    -2.546637    -2.634141
 C    -0.642528    -1.842081    -3.644048
 H     0.050180    -2.362834    -4.318528
 H    -1.279099    -1.152200    -4.216035
 H     0.060398    -1.079098    -3.092130
Co    -0.257501    -1.709214    -1.490248
 O    -1.825792     1.084778    -0.756633
 O    -3.327646    -0.923286    -1.211087
 O    -2.032040    -0.639204     0.974777
 O     1.111497     0.171879     0.657800
 O     2.756781    -1.381801    -0.513433
 O     1.856443     0.646829    -1.755648
 P     1.342640    -0.581622    -0.788851
 P    -1.801973    -0.565001    -0.666337
 C     0.258884    -3.188327    -0.766926
 O     0.543729    -4.182378    -0.263126
 C    -2.192002     2.031165     0.175949
 C    -1.407827     2.238986     1.310506
 H    -0.540747     1.601735     1.476648
 C    -3.296119     2.838949    -0.085107
 H    -3.892857     2.655109    -0.979469
 C    -1.747244     3.258289     2.196141
 H    -1.132977     3.419164     3.085458
 C    -3.624364     3.856916     0.807849
 H    -4.494812     4.485396     0.605218
 C    -2.855432     4.069513     1.951326
 H    -3.117961     4.867217     2.649838
 C    -4.460448    -0.189964    -0.974905
 C    -5.072303     0.433419    -2.062656
 H    -4.618905     0.328339    -3.049999
 C    -5.008382    -0.086972     0.304215
 H    -4.516961    -0.580144     1.142664
 C    -6.231978     1.179422    -1.866078
 H    -6.709907     1.668753    -2.718214
 C    -6.164010     0.668217     0.489398
 H    -6.586658     0.760087     1.492530
 C    -6.777789     1.305394    -0.588383
 H    -7.683808     1.895422    -0.434033
 C    -1.779290    -1.761003     1.713057
 C    -1.023244    -1.616577     2.874887
 H    -0.651233    -0.626686     3.142656
 C    -2.278403    -3.008667     1.336614
 H    -2.874802    -3.100535     0.426963
 C    -0.752768    -2.735518     3.658425
 H    -0.156175    -2.622480     4.567032
 C    -1.990019    -4.122005     2.122224
 H    -2.363807    -5.102479     1.818936
 C    -1.227161    -3.992208     3.281608
 H    -1.002852    -4.869806     3.891560
 C     1.981361     0.297665     1.713140
 C     2.491683     1.556021     2.025605
 H     2.229092     2.412652     1.403085
 C     2.290323    -0.819637     2.489458
 H     1.869632    -1.790277     2.223382
 C     3.340250     1.688453     3.123289
 H     3.747888     2.672071     3.367733
 C     3.140997    -0.672146     3.582587
 H     3.391448    -1.545913     4.188754
 C     3.671422     0.578964     3.900832
 H     4.339472     0.689143     4.757830
 C     4.023759    -0.962894    -0.841339
 C     4.900680    -0.556507     0.162866
 H     4.566056    -0.552420     1.200215
 C     4.428191    -0.981793    -2.176471
 H     3.722750    -1.307486    -2.942426
 C     6.188481    -0.149957    -0.181587
 H     6.874241     0.172928     0.605151
 C     5.715536    -0.567921    -2.508659
 H     6.029280    -0.574417    -3.555070
 C     6.599039    -0.146620    -1.514153
 H     7.607558     0.178922    -1.778139
 C     2.114724     1.946259    -1.377675
 C     3.431610     2.391491    -1.283560
 H     4.251899     1.706682    -1.500218
 C     1.044731     2.799817    -1.117598
 H     0.028821     2.416681    -1.216137
 C     3.671755     3.709289    -0.897591
 H     4.702502     4.062467    -0.817235
 C     1.298331     4.110651    -0.721207
 H     0.458270     4.772071    -0.496827
 C     2.611755     4.568168    -0.605557
 H     2.809087     5.596152    -0.293407
