 110
scf done:    -4562.057924
 C    -0.519178    -1.982064    -2.720904
 H    -0.221299    -3.009879    -2.960373
 H    -1.597580    -1.859747    -2.888574
 C     0.347399    -0.916790    -3.313374
 H     1.185376    -1.291871    -3.916739
 H    -0.210173    -0.148921    -3.870425
 H     0.876870    -0.266975    -2.501711
Co     0.301051    -1.204845    -1.131480
 C    -2.522888     0.510194    -1.922778
 O    -2.721982    -1.454970    -0.145399
 O    -1.655173     0.715934     0.638290
 C     1.238211     0.332869     1.810664
 O     3.127897    -0.752520     0.383861
 O     2.075647     1.316833    -0.674579
 P     1.622745    -0.094316     0.077798
 P    -1.551555    -0.370667    -0.630702
 C     0.792587    -2.771431    -0.610031
 O     1.021433    -3.849251    -0.264822
 C    -2.025320     1.790499    -2.244992
 O    -0.929071     2.157218    -1.563502
 C    -0.427523     3.459241    -1.660338
 H     0.417730     3.502418    -0.964908
 H    -0.071014     3.683957    -2.680918
 H    -1.188463     4.202614    -1.367269
 C    -3.622321     0.023825    -2.657971
 O    -4.033950    -1.228825    -2.403981
 C    -5.145915    -1.747277    -3.073731
 H    -5.293924    -2.762245    -2.683910
 H    -4.982856    -1.802898    -4.164460
 H    -6.056482    -1.153978    -2.878813
 C    -4.244291     0.832965    -3.621407
 H    -5.104863     0.466788    -4.179053
 C    -2.643345     2.602330    -3.200742
 H    -2.262466     3.599053    -3.418659
 C    -3.755773     2.109586    -3.871927
 H    -4.250785     2.733036    -4.620442
 C    -2.487784    -2.375448     0.834146
 C    -2.491864    -1.987539     2.175209
 H    -2.607922    -0.929910     2.418904
 C    -2.317415    -3.713432     0.482525
 H    -2.293937    -3.981923    -0.574318
 C    -2.363528    -2.940621     3.189973
 C    -2.426301    -2.522537     4.631302
 H    -2.033940    -1.504518     4.767902
 H    -3.466804    -2.526291     4.996929
 H    -1.853467    -3.205166     5.276935
 C    -2.173954    -4.663332     1.489474
 H    -2.032116    -5.713515     1.223417
 C    -2.205967    -4.285316     2.830896
 H    -2.100476    -5.043177     3.612207
 C    -2.685624     1.574973     0.875727
 C    -4.023910     1.208699     0.724905
 H    -4.266488     0.195482     0.400277
 C    -2.351787     2.866729     1.290823
 H    -1.295937     3.116386     1.382989
 C    -5.044428     2.134418     0.971604
 C    -6.475819     1.732771     0.759997
 H    -6.680796     1.571394    -0.311207
 H    -6.707876     0.789564     1.278275
 H    -7.171174     2.502786     1.122742
 C    -3.364864     3.782110     1.551385
 H    -3.108863     4.793438     1.878298
 C    -4.703787     3.423659     1.390453
 H    -5.493093     4.152968     1.590130
 C     0.949619     1.615368     2.308072
 O     1.025339     2.654590     1.452054
 C     1.267829     3.941697     1.956662
 H     1.564235     4.560727     1.099509
 H     0.367872     4.379346     2.423396
 H     2.091073     3.934812     2.689578
 C     1.112574    -0.770672     2.683669
 O     1.370183    -1.966764     2.142253
 C     1.278406    -3.137178     2.911325
 H     1.487557    -3.963746     2.222425
 H     0.264440    -3.269269     3.318605
 H     2.017603    -3.134982     3.730800
 C     0.752646    -0.594075     4.023629
 H     0.667097    -1.449129     4.692276
 C     0.593669     1.794922     3.650231
 H     0.371135     2.790541     4.031849
 C     0.498165     0.691077     4.488596
 H     0.211706     0.836033     5.533106
 C     3.751486    -1.555591    -0.526958
 C     3.891606    -1.172519    -1.859808
 H     3.499072    -0.205543    -2.181382
 C     4.260679    -2.774026    -0.080222
 H     4.120342    -3.049364     0.965770
 C     4.535575    -2.011949    -2.775473
 C     4.651819    -1.602597    -4.215495
 H     3.673735    -1.659289    -4.721574
 H     5.004306    -0.564085    -4.309943
 H     5.347843    -2.251644    -4.765077
 C     4.913296    -3.604402    -0.984018
 H     5.314630    -4.562408    -0.644764
 C     5.047450    -3.231202    -2.321562
 H     5.556885    -3.895999    -3.023869
 C     3.082811     2.186251    -0.382211
 C     3.902279     2.089110     0.742639
 H     3.775075     1.257406     1.435456
 C     3.260892     3.234613    -1.290255
 H     2.622658     3.278018    -2.174108
 C     4.887501     3.052265     0.987396
 C     5.767509     2.920619     2.197256
 H     5.180088     2.678928     3.096204
 H     6.497945     2.106093     2.062777
 H     6.330008     3.844729     2.391104
 C     4.240047     4.191868    -1.048192
 H     4.376602     5.013480    -1.755848
 C     5.046260     4.110028     0.086492
 H     5.811719     4.867970     0.270651
