  82
scf done:    -3423.172686
 C    -0.333926    -1.895707    -3.007216
 H    -0.808938    -1.494024    -3.909775
 H     0.488398    -2.578285    -3.250713
 C    -1.241410    -2.329889    -1.936717
 H    -2.315379    -2.285132    -2.161471
 H    -0.997213    -3.298296    -1.476335
 H    -1.195789    -1.625149    -0.949650
Co    -0.049484    -0.618257    -1.553379
 O     0.579138    -2.436204     1.084373
 C     2.246375    -3.002641    -0.833723
 C     2.551790    -0.509125     0.837712
 O    -0.939990     1.967263     0.434948
 C    -1.566815     2.364429    -2.162503
 C    -3.000362     0.471682    -0.290258
 P    -1.320149     0.992502    -0.915116
 P     1.341255    -1.530391    -0.140147
 C     0.951510     0.308542    -2.562592
 O     1.645983     0.936971    -3.245429
 C    -0.576914    -2.047286     1.678496
 C    -1.670075    -2.916154     1.645223
 H    -1.567321    -3.867358     1.119029
 C    -0.696852    -0.824433     2.342728
 H     0.143303    -0.129450     2.357721
 C    -2.860214    -2.567667     2.278721
 H    -3.707388    -3.258345     2.239559
 C    -1.889275    -0.494752     2.978952
 H    -1.965356     0.465921     3.495711
 C    -2.994204    -1.353245     2.962435
 C    -4.268058    -0.992032     3.669671
 H    -4.433832     0.095256     3.668069
 H    -4.245985    -1.317982     4.723213
 H    -5.139851    -1.469869     3.199220
 H     1.375468    -3.594813    -1.172498
 C     3.072569    -2.661030    -2.070377
 H     3.286402    -3.577245    -2.643295
 H     2.547372    -1.960254    -2.734150
 H     4.039164    -2.212008    -1.803301
 C     3.022980    -3.854332     0.161325
 H     2.433640    -4.058651     1.065545
 H     3.292663    -4.819211    -0.298733
 H     3.962437    -3.365129     0.459433
 H     1.947653     0.386869     1.053667
 C     3.014882    -1.093659     2.165368
 H     3.521150    -0.308266     2.749943
 H     2.175838    -1.473753     2.764451
 H     3.726850    -1.919540     2.030287
 C     3.717743    -0.056264    -0.034654
 H     3.386473     0.327915    -1.011050
 H     4.261099     0.757054     0.469972
 H     4.432420    -0.874385    -0.208542
 C     0.294033     2.368203     0.806785
 C     0.535065     2.509132     2.179257
 H    -0.278636     2.295419     2.874809
 C     1.321639     2.671284    -0.091932
 H     1.166008     2.586384    -1.166566
 C     1.783159     2.913617     2.638378
 H     1.948635     3.008712     3.715358
 C     2.564279     3.083425     0.384977
 H     3.352385     3.312233    -0.337642
 C     2.830289     3.198609     1.752102
 C     4.192528     3.581621     2.253363
 H     4.133094     4.162103     3.185841
 H     4.740443     4.182203     1.512907
 H     4.804408     2.687960     2.465897
 H    -0.528177     2.725949    -2.265784
 C    -1.977250     1.838296    -3.534468
 H    -1.781587     2.599956    -4.305533
 H    -1.413411     0.931800    -3.798024
 H    -3.048711     1.596615    -3.576263
 C    -2.420024     3.538639    -1.705105
 H    -2.140125     3.876637    -0.697543
 H    -2.298422     4.387722    -2.397154
 H    -3.489537     3.279121    -1.696687
 H    -2.742379    -0.437966     0.279027
 C    -3.703791     1.419038     0.673157
 H    -4.586799     0.912270     1.095678
 H    -3.046793     1.713511     1.499679
 H    -4.052827     2.333353     0.173661
 C    -3.920565     0.068647    -1.439421
 H    -3.404565    -0.516626    -2.213355
 H    -4.754593    -0.540131    -1.055822
 H    -4.357890     0.952250    -1.927859
