  64
scf done:    -3187.484976
 C     0.612731    -3.857633    -0.546790
 H     1.345316    -4.593528    -0.194309
 H    -0.401181    -4.244749    -0.389698
 C     0.875395    -3.325862    -1.918975
 H     1.772147    -3.731764    -2.407862
 H     0.019612    -3.397365    -2.606563
 H     1.081882    -2.173061    -1.916170
Co     1.005400    -1.985632    -0.178322
 O    -1.469278     0.064264    -0.510160
 C    -2.440374    -2.469159     0.033583
 C    -1.175739    -0.849363     2.058075
 O     1.276214     1.016226     0.815137
 C     3.605119     0.169113    -0.311736
 C     1.342195     0.841710    -1.984747
 P     1.782155    -0.016730    -0.413772
 P    -0.981762    -1.363048     0.303295
 C     2.124280    -2.436185     1.031698
 O     2.802953    -2.745069     1.918360
 C    -2.711439     0.613721    -0.534891
 C    -3.149201     1.460090     0.489970
 H    -2.488732     1.663931     1.334077
 C    -3.536871     0.376708    -1.638771
 H    -3.166974    -0.266775    -2.439540
 C    -4.417588     2.033172     0.420189
 H    -4.754739     2.689198     1.226505
 C    -4.802499     0.953470    -1.699267
 H    -5.443655     0.757740    -2.562278
 C    -5.252012     1.778087    -0.667459
 H    -6.245915     2.227987    -0.715882
 H    -2.062288    -3.474762     0.277402
 C    -3.743993    -2.216237     0.778429
 H    -4.174967    -1.230605     0.557586
 H    -3.607728    -2.286723     1.867619
 H    -2.599941    -2.478731    -1.058542
 H    -4.492105    -2.973786     0.496430
 H    -2.190675    -0.453579     2.219210
 C    -0.867429    -1.977034     3.033043
 H     0.157449    -2.349890     2.898712
 H    -1.550424    -2.832144     2.907373
 H    -0.463098    -0.019297     2.183216
 H    -0.967628    -1.626966     4.071733
 C     1.294965     2.378875     0.774204
 C     0.184645     3.066252     0.277970
 H    -0.664455     2.491005    -0.091828
 C     2.393989     3.082368     1.271757
 H     3.239149     2.526349     1.681651
 C     0.189345     4.458488     0.256757
 H    -0.679537     4.991822    -0.136505
 C     2.388885     4.475860     1.244930
 H     3.250647     5.024812     1.632403
 C     1.291986     5.168697     0.732901
 H     1.293061     6.260676     0.713262
 H     3.870792    -0.151588     0.708692
 C     4.309469    -0.697910    -1.345222
 H     4.117833    -0.349606    -2.372400
 H     3.957572    -1.739034    -1.273519
 H     3.883825     1.230443    -0.409240
 H     5.398767    -0.693116    -1.191530
 H     0.262764     1.042186    -1.894623
 C     2.127866     2.067960    -2.425939
 H     3.189940     1.835228    -2.594664
 H     2.074726     2.885601    -1.694522
 H     1.421066     0.043606    -2.743007
 H     1.724372     2.450703    -3.376294
