  96
scf done:    -4254.681693
 C     0.747501    -2.255488    -2.998275
 H     0.400803    -2.155120    -4.033041
 H     1.828980    -2.420695    -2.961272
 C    -0.085759    -3.137923    -2.133925
 H    -0.946760    -3.600306    -2.636704
 H     0.482219    -3.896804    -1.577755
 H    -0.604003    -2.557256    -1.254205
Co     0.023742    -0.986129    -1.706951
 O     2.135420    -1.625559     0.740894
 O     3.184978    -1.114560    -1.491342
 O     2.212781     0.698195     0.025319
 O    -0.937080     1.176434     0.533686
 O    -2.828837     0.294364    -0.696972
 O    -1.589162    -1.235096     0.928744
 P    -1.303659    -0.185258    -0.302893
 P     1.816146    -0.758600    -0.633800
 C    -0.324800     0.087388    -3.003507
 O    -0.454786     0.827889    -3.878029
 C     2.275569    -1.129151     2.015999
 C     1.152017    -1.056795     2.836509
 H     0.189305    -1.375628     2.437039
 C     3.529709    -0.740212     2.482759
 H     4.394113    -0.806320     1.820338
 C     1.283110    -0.573308     4.136745
 H     0.399959    -0.514634     4.777922
 C     3.649058    -0.262445     3.786064
 H     4.630466     0.045698     4.154721
 C     2.530073    -0.171818     4.614907
 H     2.631896     0.207348     5.634246
 C     4.444787    -1.100873    -0.936914
 C     5.123007     0.106865    -0.791838
 H     4.642639     1.030583    -1.118288
 C     5.016191    -2.322277    -0.550045
 C     4.261581    -3.603236    -0.728801
 H     3.355041    -3.606898    -0.104167
 H     3.936779    -3.728428    -1.773390
 H     4.880625    -4.467014    -0.451414
 C     6.397144     0.116272    -0.228451
 H     6.928903     1.062812    -0.108789
 C     6.297094    -2.282673     0.009198
 H     6.762080    -3.221707     0.321288
 C     6.983218    -1.080529     0.178421
 H     7.981027    -1.081528     0.622856
 C     2.036329     1.935547    -0.527705
 C     2.072688     2.149972    -1.903794
 H     2.238365     1.311703    -2.582452
 C     1.863362     2.990236     0.382159
 C     1.857143     2.706825     1.851081
 H     1.128503     1.919082     2.094183
 H     2.834696     2.326283     2.187158
 H     1.614037     3.610489     2.425721
 C     1.898303     3.442260    -2.398615
 H     1.909936     3.608484    -3.477974
 C     1.702660     4.272634    -0.143699
 H     1.548982     5.105798     0.546776
 C     1.711392     4.504108    -1.519278
 H     1.568195     5.516992    -1.901499
 C    -1.306190     2.471956     0.262798
 C    -1.498539     3.312734     1.357722
 H    -1.383248     2.911348     2.365259
 C    -1.436012     2.957374    -1.036667
 H    -1.270302     2.305930    -1.893858
 C    -1.816122     4.652024     1.148422
 H    -1.961659     5.309586     2.008835
 C    -1.760823     4.296759    -1.231792
 H    -1.853856     4.674822    -2.252216
 C    -1.950970     5.150216    -0.146599
 H    -2.201280     6.200622    -0.309396
 C    -3.817820    -0.495176    -1.229238
 C    -3.564757    -1.420138    -2.239872
 H    -2.547393    -1.521293    -2.620739
 C    -5.106463    -0.300184    -0.708562
 C    -5.340948     0.723506     0.357676
 H    -4.809162     0.458421     1.284548
 H    -4.960717     1.709060     0.048939
 H    -6.411227     0.812372     0.587016
 C    -4.608968    -2.201752    -2.731771
 H    -4.411273    -2.930601    -3.521051
 C    -6.131619    -1.096846    -1.224566
 H    -7.142890    -0.965503    -0.830302
 C    -5.894106    -2.045191    -2.219853
 H    -6.716915    -2.654545    -2.599986
 C    -2.563439    -1.135970     1.900780
 C    -2.524378    -0.106244     2.838250
 H    -1.724799     0.630573     2.778337
 C    -3.537698    -2.143697     1.943914
 C    -3.528314    -3.267058     0.954269
 H    -3.874491    -2.930580    -0.035686
 H    -2.512259    -3.667087     0.821270
 H    -4.187635    -4.081435     1.282998
 C    -3.503555    -0.040996     3.826721
 H    -3.481064     0.770105     4.557947
 C    -4.504713    -2.051937     2.950239
 H    -5.277343    -2.823537     3.003125
 C    -4.501109    -1.011989     3.878127
 H    -5.273138    -0.967817     4.649390
