 104
scf done:    -3811.211662
 C     0.126129    -1.679338    -2.786580
 H    -0.683224    -1.587165    -3.519858
 H     1.104204    -1.794866    -3.267902
 C    -0.135285    -2.550724    -1.634371
 H    -1.084848    -3.102698    -1.646712
 H     0.686146    -3.225024    -1.352156
 H    -0.265464    -1.942462    -0.588219
Co     0.016273    -0.475154    -1.247127
 O     1.994507    -1.769549     0.976975
 C     3.292493    -1.217546    -1.188304
 C     2.562816     0.933715     0.788786
 O    -1.762794     1.063999     1.168744
 C    -2.910366     1.250794    -1.270523
 C    -2.811361    -1.237035     0.426767
 P    -1.787691     0.148712    -0.275391
 P     1.906841    -0.515715    -0.172757
 C     0.191259     0.887891    -2.244773
 O     0.306721     1.828311    -2.912163
 C     0.992681    -2.094705     1.825954
 C     0.722941    -3.454449     2.016500
 H     1.305141    -4.183701     1.449594
 C     0.256626    -1.135622     2.529296
 H     0.448930    -0.073862     2.373125
 C    -0.255049    -3.850944     2.924119
 H    -0.452636    -4.915482     3.072096
 C    -0.717299    -1.544480     3.437650
 H    -1.279839    -0.788781     3.990450
 C    -0.976402    -2.898142     3.645162
 H    -1.735815    -3.209818     4.365176
 H     2.832712    -2.190857    -1.453515
 C     4.611523    -1.531425    -0.483920
 H     4.419865    -2.065091     0.458520
 H     5.123048    -0.588498    -0.224507
 C     5.520575    -2.353431    -1.394605
 H     6.481054    -2.551493    -0.891237
 H     5.053994    -3.339755    -1.570961
 C     5.753773    -1.660534    -2.733072
 H     6.374502    -2.291360    -3.389994
 H     6.328579    -0.731850    -2.562540
 C     4.437429    -1.309180    -3.419000
 H     3.910318    -2.239819    -3.698642
 H     4.625994    -0.765492    -4.358834
 C     3.536259    -0.481100    -2.508045
 H     4.020624     0.489072    -2.314933
 H     2.579249    -0.257684    -3.001110
 H     1.639837     1.426250     1.145607
 C     3.277638     1.941585    -0.117461
 H     2.638810     2.212109    -0.974598
 H     4.185976     1.474518    -0.532519
 C     3.686643     3.192322     0.654589
 H     4.241912     3.873723    -0.010592
 H     2.778921     3.728432     0.972755
 C     4.515549     2.849850     1.886420
 H     4.759779     3.766139     2.448282
 H     5.480796     2.411818     1.571713
 C     3.783204     1.854874     2.779305
 H     2.861064     2.323952     3.167430
 H     4.398591     1.595517     3.656184
 C     3.412330     0.588960     2.013445
 H     4.332090     0.070746     1.699141
 H     2.875593    -0.112029     2.669080
 C    -1.013352     2.147752     1.445132
 C    -0.798544     2.427993     2.802695
 H    -1.220655     1.747122     3.544357
 C    -0.475745     3.007431     0.477846
 H    -0.604390     2.806016    -0.584311
 C    -0.084432     3.558072     3.185607
 H     0.067684     3.762110     4.248371
 C     0.226906     4.143984     0.875692
 H     0.625296     4.811543     0.107787
 C     0.427315     4.430631     2.224063
 H     0.980366     5.322966     2.524231
 H    -2.266986     2.140849    -1.401457
 C    -4.194927     1.734994    -0.602801
 H    -3.985166     2.099367     0.414185
 H    -4.896862     0.889448    -0.500605
 C    -4.852503     2.826059    -1.444357
 H    -5.793294     3.153843    -0.972606
 H    -4.190139     3.710396    -1.463491
 C    -5.108625     2.355476    -2.872511
 H    -5.541101     3.171551    -3.473995
 H    -5.865381     1.549659    -2.855109
 C    -3.836570     1.826929    -3.528219
 H    -3.115996     2.654381    -3.658108
 H    -4.055348     1.444744    -4.538553
 C    -3.184980     0.735109    -2.685277
 H    -3.858465    -0.136239    -2.643557
 H    -2.250445     0.384670    -3.147914
 H    -2.030407    -1.913944     0.821863
 C    -3.570166    -1.992946    -0.667225
 H    -2.925299    -2.187039    -1.537983
 H    -4.397736    -1.362073    -1.033142
 C    -4.151194    -3.291861    -0.119109
 H    -4.697037    -3.828171    -0.912396
 H    -3.323519    -3.952769     0.196640
 C    -5.066413    -3.019745     1.069658
 H    -5.447628    -3.965979     1.486963
 H    -5.950753    -2.456953     0.718805
 C    -4.351302    -2.212189     2.147216
 H    -3.541265    -2.824475     2.580022
 H    -5.042956    -1.978046     2.973192
 C    -3.746417    -0.923494     1.595758
 H    -4.553679    -0.251461     1.263266
 H    -3.197765    -0.387081     2.380396
