 110
scf done:    -4562.036284
 C    -1.351227    -0.789851    -3.403046
 H    -1.266519    -1.640922    -4.088819
 H    -2.407443    -0.514002    -3.282408
 C    -0.419219     0.345178    -3.678039
 H     0.242160     0.199112    -4.542602
 H    -0.916857     1.323985    -3.747246
 H     0.322043     0.535928    -2.797162
Co    -0.193441    -0.845980    -1.839641
 C    -2.914356     1.132401    -1.268467
 O    -2.760965    -1.479690    -0.343392
 O    -1.610617     0.256416     0.990759
 C     1.759575    -1.015839     1.075229
 O     2.964603    -0.976115    -1.363598
 O     1.800369     1.146083    -0.594780
 P     1.527434    -0.496334    -0.664357
 P    -1.778662    -0.183926    -0.635231
 C    -0.033762    -2.548467    -1.966778
 O    -0.064837    -3.704342    -1.964953
 C    -2.317428     2.404370    -1.385018
 O    -1.022740     2.450805    -1.033399
 C    -0.369213     3.687391    -0.924355
 H     0.651767     3.464738    -0.601490
 H    -0.332622     4.209982    -1.895254
 H    -0.861271     4.327977    -0.173501
 C    -4.232455     0.978894    -1.740729
 O    -4.731369    -0.265291    -1.772673
 C    -6.098136    -0.468653    -2.001417
 H    -6.276151    -1.540740    -1.852332
 H    -6.387262    -0.190928    -3.029632
 H    -6.715189     0.096477    -1.282481
 C    -4.967133     2.092622    -2.175304
 H    -5.996582     1.978425    -2.511784
 C    -3.038566     3.518832    -1.824080
 H    -2.574451     4.502565    -1.872647
 C    -4.366127     3.345366    -2.199707
 H    -4.944138     4.208214    -2.539553
 C    -3.897055    -1.668377     0.373798
 C    -4.567038    -2.872517     0.132795
 H    -4.151243    -3.552189    -0.613891
 C    -4.414077    -0.776767     1.313543
 H    -3.896952     0.154554     1.527924
 C    -5.740670    -3.171772     0.813798
 H    -6.250512    -4.117314     0.606143
 C    -5.596955    -1.091213     1.982052
 H    -5.990596    -0.377522     2.711690
 C    -6.285339    -2.285721     1.753142
 C    -7.540792    -2.625380     2.503885
 H    -8.287077    -3.101811     1.849882
 H    -8.000358    -1.729454     2.945656
 H    -7.337356    -3.329932     3.327931
 C    -1.426814     1.457891     1.596511
 C    -0.200671     1.720090     2.213744
 H     0.588217     0.971517     2.147326
 C    -2.452195     2.403229     1.688526
 H    -3.414597     2.212864     1.212219
 C    -0.002830     2.917270     2.891197
 H     0.963212     3.100198     3.372047
 C    -2.233395     3.603266     2.363837
 H    -3.044279     4.335522     2.415711
 C    -1.009463     3.888737     2.976207
 C    -0.785527     5.171237     3.724511
 H     0.189617     5.618427     3.476711
 H    -0.796773     5.006175     4.814874
 H    -1.565023     5.912147     3.496164
 C     2.846802    -0.532750     1.835709
 O     3.776706     0.140644     1.149333
 C     4.914656     0.644517     1.791027
 H     5.491590     1.168887     1.019196
 H     4.648934     1.364404     2.583209
 H     5.523125    -0.170081     2.218682
 C     0.809760    -1.837150     1.720149
 O    -0.109558    -2.411331     0.945270
 C    -1.101200    -3.231748     1.506769
 H    -1.689458    -3.609522     0.664503
 H    -1.762049    -2.658392     2.176567
 H    -0.654434    -4.078532     2.054455
 C     0.873655    -2.046814     3.105586
 H     0.116024    -2.644222     3.609272
 C     2.926555    -0.757901     3.213081
 H     3.761529    -0.371355     3.795343
 C     1.921534    -1.496495     3.830447
 H     1.968513    -1.663622     4.909310
 C     3.786278    -1.972450    -0.928667
 C     3.297683    -3.221782    -0.546471
 H     2.227003    -3.429018    -0.590412
 C     5.158913    -1.722805    -0.893588
 H     5.519799    -0.735311    -1.186509
 C     4.187227    -4.204657    -0.117715
 H     3.791304    -5.178168     0.184403
 C     6.032588    -2.719229    -0.472812
 H     7.106382    -2.511209    -0.447637
 C     5.566054    -3.978226    -0.071795
 C     6.519129    -5.056287     0.357902
 H     6.913369    -5.610131    -0.510927
 H     6.029027    -5.788219     1.016166
 H     7.383859    -4.640147     0.896280
 C     2.901274     1.940399    -0.649037
 C     3.020119     2.952519     0.306899
 H     2.269762     3.015602     1.097438
 C     3.852973     1.838082    -1.664772
 H     3.754932     1.051213    -2.411721
 C     4.088733     3.841599     0.252514
 H     4.167927     4.625897     1.011199
 C     4.923115     2.729877    -1.695686
 H     5.666272     2.633481    -2.492813
 C     5.066397     3.748046    -0.745686
 C     6.203239     4.726697    -0.817288
 H     6.480329     5.098055     0.180444
 H     5.936410     5.605439    -1.428611
 H     7.097023     4.274917    -1.272113
