 100
scf done:    -4182.840844
 C    -0.045314     3.230143    -0.312422
 H    -0.951291     3.735804     0.041970
 H     0.873920     3.777262    -0.074414
 C    -0.116941     2.655769    -1.668989
 H    -1.027364     2.915853    -2.226192
 H     0.783029     2.804400    -2.280395
 H    -0.241848     1.459971    -1.691528
Co     0.010559     1.285363     0.025370
 C     1.856934    -1.152219    -1.661615
 O     3.122951     0.966369    -0.881896
 O     2.319378    -0.663169     0.965737
 C    -1.844418    -1.105257     1.628036
 O    -3.167902     0.955910     0.778836
 O    -2.313218    -0.690636    -1.014619
 P    -1.748338     0.165711     0.332990
 P     1.740071     0.142531    -0.391445
 C     0.322847     1.751259     1.632187
 O     0.522351     2.088151     2.716733
 C     0.672254    -1.793282    -2.040597
 H    -0.288174    -1.445921    -1.652661
 C     3.079554    -1.576744    -2.192184
 H     3.996516    -1.059918    -1.901749
 C     0.726389    -2.866326    -2.926876
 H    -0.197557    -3.365164    -3.229912
 C     3.146075    -2.662190    -3.069813
 C     4.475555    -3.138808    -3.578259
 H     5.062128    -2.309980    -4.003436
 H     5.071282    -3.568360    -2.756444
 H     4.361786    -3.909846    -4.353135
 C     1.952299    -3.300191    -3.427834
 H     1.986336    -4.149443    -4.116325
 C     3.411908     2.204341    -0.381229
 C     3.393178     2.458963     0.989062
 H     3.151731     1.649869     1.681070
 C     3.722853     3.219937    -1.287468
 H     3.735227     2.990706    -2.354620
 C     3.646543     3.746423     1.477679
 C     3.573748     4.006818     2.953486
 H     2.599555     3.686199     3.353797
 H     4.348172     3.440009     3.494791
 H     3.711536     5.072384     3.183361
 C     3.997070     4.494999    -0.804471
 H     4.238633     5.297516    -1.505735
 C     3.949157     4.761331     0.564784
 H     4.148794     5.771726     0.930284
 C     3.335038    -1.583196     0.918100
 C     4.660743    -1.158997     0.967520
 H     4.872325    -0.090083     1.038663
 C     3.020719    -2.938873     0.821089
 H     1.973921    -3.243066     0.766435
 C     5.705003    -2.088816     0.906163
 C     7.131972    -1.627758     0.978873
 H     7.287504    -0.708872     0.394231
 H     7.419316    -1.402165     2.019238
 H     7.823577    -2.395556     0.604256
 C     4.055618    -3.866290     0.761469
 H     3.822475    -4.930257     0.675227
 C     5.385362    -3.447007     0.797637
 H     6.189665    -4.185410     0.743310
 C    -0.651751    -1.705334     2.046322
 H     0.307349    -1.339977     1.674115
 C    -3.065949    -1.551725     2.141857
 H    -3.990282    -1.065816     1.823180
 C    -0.696520    -2.759754     2.954438
 H     0.234011    -3.224773     3.289316
 C    -3.122503    -2.619631     3.041865
 C    -4.449971    -3.117003     3.535593
 H    -5.048370    -2.299130     3.965936
 H    -5.035660    -3.544546     2.705659
 H    -4.332306    -3.894001     4.303914
 C    -1.920786    -3.217216     3.438685
 H    -1.946680    -4.051889     4.145114
 C    -3.482072     2.167648     0.241300
 C    -3.468766     2.377524    -1.140610
 H    -3.197526     1.549767    -1.799913
 C    -3.837421     3.200142     1.108318
 H    -3.836107     3.009976     2.182718
 C    -3.790725     3.629700    -1.673651
 C    -3.731900     3.865483    -3.155652
 H    -3.717986     2.919349    -3.714955
 H    -4.591829     4.457083    -3.503704
 H    -2.823070     4.427572    -3.429362
 C    -4.171863     4.443606     0.579381
 H    -4.450383     5.257756     1.252952
 C    -4.144731     4.661897    -0.796817
 H    -4.404140     5.645295    -1.197400
 C    -3.319538    -1.618535    -0.956563
 C    -4.650436    -1.213627    -1.035180
 H    -4.875682    -0.149834    -1.134421
 C    -2.993108    -2.968602    -0.819282
 H    -1.944341    -3.260098    -0.738805
 C    -5.684675    -2.153829    -0.963679
 C    -7.115760    -1.711085    -1.065559
 H    -7.289471    -0.781753    -0.502913
 H    -7.392111    -1.511408    -2.114202
 H    -7.803550    -2.478491    -0.683189
 C    -4.017628    -3.906700    -0.750136
 H    -3.773055    -4.965027    -0.631703
 C    -5.351632    -3.504978    -0.815957
 H    -6.148067    -4.251167    -0.752902
