  76
scf done:    -3344.602487
 C    -0.449929     1.582401    -2.973122
 H     0.261825     1.501305    -3.802645
 H    -1.483659     1.649672    -3.330901
 C    -0.077663     2.501802    -1.889085
 H     0.843049     3.081251    -2.038384
 H    -0.882019     3.163964    -1.536779
 H     0.180674     1.937479    -0.847975
Co    -0.095571     0.428268    -1.434753
 O    -1.992486     1.626636     0.939798
 C    -3.417504     1.030830    -1.156422
 C    -2.430350    -1.100082     0.738129
 O     1.832752    -1.066901     0.900579
 C     2.923030    -1.137969    -1.573621
 C     2.740944     1.312557     0.189415
 P     1.767466    -0.115125    -0.516880
 P    -1.923688     0.399483    -0.240958
 C    -0.224134    -0.938647    -2.431574
 O    -0.328072    -1.877094    -3.103830
 C    -0.920859     2.014426     1.672775
 C    -0.566623     3.367184     1.658419
 H    -1.147688     4.051559     1.037043
 C    -0.194082     1.115517     2.459300
 H    -0.460837     0.058221     2.463289
 C     0.498344     3.817832     2.435049
 H     0.766286     4.877140     2.418824
 C     0.863545     1.577812     3.238317
 H     1.421795     0.869827     3.855268
 C     1.217281     2.926286     3.231815
 H     2.050774     3.280188     3.842100
 H    -3.014808     2.005874    -1.489878
 C    -3.731613     0.216238    -2.408106
 H    -4.360943     0.807693    -3.091821
 H    -2.820533    -0.072858    -2.950182
 H    -4.286335    -0.701198    -2.167767
 C    -4.661536     1.308466    -0.323233
 H    -4.418608     1.854467     0.598468
 H    -5.375066     1.915582    -0.904276
 H    -5.178352     0.375920    -0.051410
 H    -1.453823    -1.458222     1.102448
 C    -3.319232    -0.849830     1.948952
 H    -3.350920    -1.760339     2.568856
 H    -2.944622    -0.027075     2.573640
 H    -4.351378    -0.605424     1.662757
 C    -2.985233    -2.188625    -0.174839
 H    -2.369025    -2.336461    -1.074599
 H    -3.008952    -3.145676     0.367682
 H    -4.013361    -1.961266    -0.493272
 C     1.053759    -2.124336     1.202721
 C     0.802504    -2.355682     2.562603
 H     1.242274    -1.675075     3.294038
 C     0.512538    -2.994856     0.248989
 H     0.691291    -2.837518    -0.813703
 C     0.014219    -3.430594     2.959319
 H    -0.174980    -3.593825     4.023164
 C    -0.270157    -4.072998     0.659656
 H    -0.685078    -4.742584    -0.097458
 C    -0.531666    -4.295960     2.009482
 H    -1.149236    -5.140778     2.321265
 H     2.303707    -2.038590    -1.732119
 C     3.148987    -0.523881    -2.952015
 H     3.525637    -1.288793    -3.649043
 H     2.215316    -0.115199    -3.364844
 H     3.890860     0.286528    -2.921829
 C     4.219198    -1.581073    -0.910459
 H     4.046017    -1.978047     0.099545
 H     4.700170    -2.370631    -1.510282
 H     4.936669    -0.750020    -0.835204
 H     1.933600     1.919397     0.634493
 C     3.729077     0.993577     1.303943
 H     4.075666     1.936183     1.757929
 H     3.268115     0.383896     2.089387
 H     4.613077     0.457862     0.931248
 C     3.398850     2.134779    -0.915699
 H     2.746203     2.273136    -1.789044
 H     3.666176     3.132096    -0.532223
 H     4.327054     1.659550    -1.266536
