 114
scf done:    -3966.274242
 C    -1.154822     1.148723    -3.010416
 H    -0.858519     1.002017    -4.056477
 H    -2.231482     0.963453    -2.900238
 C    -0.671173     2.421322    -2.396571
 H    -0.044281     3.045600    -3.048765
 H    -1.465744     3.038403    -1.948528
 H     0.001458     2.223604    -1.464604
Co     0.074501     0.480391    -1.653822
 C    -2.903503     1.206428    -0.160035
 C    -2.475615    -1.562185    -1.113924
 C    -1.391444    -0.722421     1.355130
 C     1.877851    -0.869062     1.001886
 C     3.424430     0.276960    -1.111484
 C     2.016936     2.073129     0.589079
 P     1.775231     0.461471    -0.290831
 P    -1.600233    -0.104448    -0.376935
 C     0.775864    -0.582849    -2.776224
 O     1.181752    -1.369807    -3.532457
 C    -2.631423     2.255308     0.743512
 O    -1.463601     2.169781     1.425590
 C    -1.278278     2.952655     2.571491
 H    -0.331297     2.622744     3.015357
 H    -1.198275     4.027334     2.335153
 H    -2.096115     2.803531     3.297553
 C    -4.084829     1.323386    -0.922710
 O    -4.335088     0.345494    -1.818346
 C    -5.461465     0.419502    -2.642315
 H    -5.430662    -0.467827    -3.287814
 H    -5.447016     1.322702    -3.276868
 H    -6.400197     0.404700    -2.061080
 C    -4.963548     2.402699    -0.755087
 H    -5.875597     2.470182    -1.346102
 C    -3.506830     3.330294     0.928217
 H    -3.275822     4.120502     1.641162
 C    -4.670366     3.392838     0.172628
 H    -5.357579     4.231755     0.303849
 H    -2.669754    -1.293760    -2.160094
 H    -3.452633    -1.711178    -0.632455
 C    -1.622961    -2.822606    -1.067541
 H    -0.606676    -2.571793    -1.415289
 H    -1.515141    -3.186243    -0.029466
 C    -2.185474    -3.964031    -1.920024
 H    -2.345823    -3.562909    -2.938183
 C    -1.182739    -5.106027    -2.028115
 H    -0.250238    -4.767922    -2.504230
 H    -1.582174    -5.939534    -2.627108
 H    -0.930993    -5.505151    -1.030390
 C    -3.526327    -4.464689    -1.393792
 H    -3.921734    -5.281729    -2.017664
 H    -4.283930    -3.667130    -1.372056
 H    -3.420372    -4.851758    -0.365645
 H    -0.761922     0.002072     1.884598
 H    -0.780479    -1.630111     1.241738
 C    -2.656380    -1.003158     2.146504
 H    -3.210908    -0.059165     2.281902
 H    -3.332102    -1.665787     1.576057
 C    -2.403932    -1.636446     3.518223
 H    -1.648272    -1.012819     4.035249
 C    -3.676375    -1.626542     4.357182
 H    -4.066356    -0.604647     4.486820
 H    -3.506620    -2.054672     5.357783
 H    -4.466939    -2.222775     3.871365
 C    -1.841347    -3.048665     3.399807
 H    -1.651452    -3.488192     4.391880
 H    -0.893057    -3.069280     2.843565
 H    -2.556212    -3.705836     2.875811
 C     1.737174    -0.706563     2.393013
 O     1.515701     0.546619     2.854512
 C     1.467812     0.771170     4.234372
 H     1.373319     1.856411     4.372051
 H     0.599279     0.275486     4.702671
 H     2.388712     0.431445     4.738508
 C     2.032568    -2.190182     0.524980
 O     2.129017    -2.318820    -0.807558
 C     2.330739    -3.575367    -1.394383
 H     2.304905    -3.403979    -2.477303
 H     1.528996    -4.281434    -1.124816
 H     3.306347    -4.002110    -1.103989
 C     2.086316    -3.290792     1.388610
 H     2.217018    -4.298370     0.997162
 C     1.791118    -1.801433     3.266015
 H     1.678136    -1.662893     4.339699
 C     1.967746    -3.080976     2.755739
 H     2.004765    -3.932460     3.439008
 H     3.492381     1.125208    -1.811716
 H     3.341732    -0.620872    -1.734515
 C     4.635455     0.218055    -0.195376
 H     4.774448     1.196100     0.297485
 H     4.451340    -0.504761     0.620147
 C     5.940511    -0.170166    -0.897396
 H     6.072469     0.507354    -1.762197
 C     7.127483     0.025837     0.038782
 H     7.196588     1.067557     0.389697
 H     8.078773    -0.227536    -0.454854
 H     7.032367    -0.619019     0.928708
 C     5.898258    -1.601581    -1.422968
 H     6.839316    -1.868542    -1.928463
 H     5.081086    -1.755050    -2.143109
 H     5.750659    -2.313147    -0.592480
 H     2.735248     1.971187     1.413377
 H     1.040447     2.301876     1.035926
 C     2.455747     3.179952    -0.367375
 H     3.545650     3.112347    -0.518953
 H     2.004899     3.038268    -1.365919
 C     2.103326     4.586777     0.127865
 H     2.342493     4.626913     1.207849
 C     2.945573     5.641917    -0.578863
 H     4.021299     5.486326    -0.401621
 H     2.690195     6.657762    -0.238438
 H     2.778564     5.605612    -1.668445
 C     0.616159     4.879969    -0.044239
 H     0.329954     5.820775     0.451835
 H    -0.013346     4.073997     0.359281
 H     0.364699     4.978045    -1.112798
