 106
scf done:    -3737.438599
 C     1.430221     1.755057    -2.889163
 H     1.324788     2.773326    -3.281434
 H     2.491377     1.473797    -2.846314
 C     0.552000     0.734330    -3.529277
 H    -0.150835     1.122263    -4.278490
 H     1.096614    -0.132859    -3.930282
 H    -0.121074     0.187295    -2.741739
Co     0.252739     1.265523    -1.415148
 O     2.557743    -0.928420    -1.443836
 C     3.247864     1.350403    -0.000844
 C     1.614012    -0.716739     1.123810
 O    -1.330932    -0.889540     0.391060
 C    -2.575793     1.519971     0.577323
 C    -2.759905    -0.068534    -1.823791
 P    -1.543505     0.507139    -0.556651
 P     1.841099     0.233346    -0.429736
 C     0.043536     2.904763    -0.984991
 O     0.043741     4.006811    -0.623930
 C     3.823557    -1.407159    -1.306789
 C     4.082673    -2.526827    -0.513818
 H     3.249778    -3.031398    -0.020829
 C     4.878947    -0.787054    -1.981192
 H     4.662984     0.064551    -2.629757
 C     5.391278    -2.976702    -0.352495
 H     5.581332    -3.848091     0.280507
 C     6.180590    -1.245431    -1.809559
 H     6.997464    -0.740703    -2.333444
 C     6.466745    -2.336733    -0.978524
 C     7.881537    -2.790007    -0.760534
 H     8.458912    -2.777624    -1.697272
 H     7.920018    -3.809461    -0.351093
 H     8.404376    -2.128900    -0.048969
 H     3.676842     1.657781    -0.968788
 H     2.761193     2.260391     0.389418
 C     4.340648     0.869240     0.947727
 H     3.948118     0.829340     1.978246
 H     4.645090    -0.159294     0.702386
 C     5.580237     1.751781     0.912760
 H     5.313965     2.786965     1.194574
 H     5.946955     1.807492    -0.128516
 C     6.702103     1.244991     1.807806
 H     6.336998     1.180760     2.848358
 H     6.948382     0.209020     1.513114
 C     7.954340     2.104951     1.755905
 H     8.747503     1.711240     2.409769
 H     7.743649     3.138665     2.074398
 H     8.360814     2.154803     0.732693
 H     0.931948    -1.539462     0.862423
 H     2.570991    -1.151588     1.452431
 C     0.986531     0.143666     2.213714
 H     1.730347     0.854881     2.614004
 H     0.193854     0.764192     1.762951
 C     0.389345    -0.673074     3.349369
 H     1.187781    -1.240053     3.861759
 H    -0.289816    -1.429463     2.919561
 C    -0.374868     0.164699     4.363957
 H     0.301874     0.916976     4.806468
 H    -1.151693     0.745345     3.833208
 C    -1.018619    -0.662618     5.464810
 H    -1.572037    -0.034255     6.179246
 H    -0.262142    -1.226355     6.034062
 H    -1.725300    -1.397883     5.046346
 C    -2.290277    -1.786016     0.746019
 C    -2.500639    -2.920361    -0.043373
 H    -1.881082    -3.067119    -0.930323
 C    -3.038702    -1.615874     1.912731
 H    -2.842672    -0.754113     2.552882
 C    -3.490298    -3.834297     0.300601
 H    -3.650157    -4.711065    -0.333510
 C    -4.025343    -2.541735     2.246324
 H    -4.609030    -2.391281     3.158767
 C    -4.284284    -3.656576     1.441859
 C    -5.377661    -4.628607     1.778784
 H    -6.252568    -4.483948     1.123140
 H    -5.719547    -4.507094     2.816264
 H    -5.045820    -5.669940     1.649785
 H    -3.380679     0.875924     0.966864
 H    -1.932189     1.781717     1.434090
 C    -3.167686     2.779752    -0.043447
 H    -2.362391     3.456297    -0.363610
 H    -3.729326     2.523776    -0.958382
 C    -4.092031     3.517932     0.915679
 H    -3.535214     3.764568     1.837992
 H    -4.911211     2.845295     1.230686
 C    -4.680158     4.791815     0.325706
 H    -3.855936     5.456217     0.012577
 H    -5.228864     4.541313    -0.599730
 C    -5.601184     5.531157     1.282536
 H    -6.009962     6.446365     0.828140
 H    -5.068572     5.825855     2.201106
 H    -6.453174     4.901046     1.585471
 H    -2.710109     0.681468    -2.630487
 H    -2.303896    -0.980446    -2.247435
 C    -4.206714    -0.333005    -1.416322
 H    -4.249635    -0.856025    -0.449657
 H    -4.731000     0.625006    -1.263622
 C    -4.961754    -1.167279    -2.441183
 H    -4.412604    -2.112588    -2.604509
 H    -4.968940    -0.648966    -3.417487
 C    -6.387590    -1.488124    -2.016321
 H    -6.357691    -1.999798    -1.037634
 H    -6.936987    -0.545500    -1.844372
 C    -7.140264    -2.344990    -3.020961
 H    -8.165214    -2.562392    -2.684009
 H    -6.631574    -3.309243    -3.182278
 H    -7.211654    -1.844814    -4.000252
