  56
scf done:    -3529.508740
 C    -3.939322    -1.171308    -0.876277
 H    -4.386874    -2.170898    -0.905717
 H    -4.592801    -0.451227    -0.372149
 C    -3.299728    -0.722382    -2.135567
 H    -3.318118    -1.448419    -2.959025
 H    -3.631848     0.262257    -2.495999
 H    -2.140327    -0.499317    -1.999298
Co    -2.050877    -1.072957    -0.417736
 O    -1.719703     2.186664     0.399007
 O    -3.697853     1.069654     1.295285
 O    -1.417534     0.444070     2.245441
 O     0.895485    -1.204611     0.620637
 O     0.638463    -2.544744    -1.530242
 O     0.652187    -0.111338    -1.748786
 P     0.008454    -1.223706    -0.774126
 P    -2.199235     0.619553     0.817316
 C    -2.211740    -2.527863     0.475327
 O    -2.370218    -3.449407     1.150881
 C    -0.525517     2.422857    -0.216414
 C    -0.523143     2.933416    -1.514930
 H    -1.477818     3.114283    -2.012057
 C     0.682134     2.179936     0.440176
 H     0.668452     1.772846     1.450545
 C     0.681730     3.193943    -2.159612
 H     0.710945     3.589472    -3.176643
 C     1.890954     2.428665    -0.202548
 H     2.844784     2.220141     0.285848
 C     1.874336     2.929372    -1.496653
 F     3.031856     3.142480    -2.129900
 C    -4.211463     2.379091     1.392743
 H    -3.702793     2.968558     2.171900
 H    -4.118876     2.921006     0.439822
 H    -5.274479     2.284143     1.655388
 C    -1.599192     1.336881     3.321331
 H    -1.370033     2.375516     3.027308
 H    -2.630985     1.288769     3.704371
 H    -0.911080     1.032976     4.122101
 C     2.229861    -1.026164     0.824216
 C     2.594389    -0.325613     1.977272
 H     1.800620     0.021306     2.640866
 C     3.216679    -1.527140    -0.027587
 H     2.929557    -2.109281    -0.902871
 C     3.934915    -0.094195     2.264927
 H     4.240113     0.450842     3.160046
 C     4.561035    -1.289524     0.254039
 H     5.349877    -1.666861    -0.399275
 C     4.906181    -0.571051     1.390882
 F     6.192683    -0.345227     1.657765
 C     0.306293    -3.845032    -1.090476
 H    -0.758048    -4.064593    -1.268458
 H     0.921893    -4.549823    -1.665483
 H     0.518544    -3.975166    -0.016605
 C     1.719146    -0.204492    -2.671538
 H     2.655765     0.134189    -2.205108
 H     1.835173    -1.231026    -3.046215
 H     1.480994     0.468483    -3.506708
