  92
scf done:    -4721.495457
 C    -1.164478     0.702050    -2.917786
 H    -0.540446     1.051996    -3.748070
 H    -1.752451    -0.171633    -3.226542
 C    -1.955327     1.760136    -2.225612
 H    -1.772250     2.780388    -2.587898
 H    -3.035038     1.558859    -2.175540
 H    -1.711897     1.827047    -1.079601
Co    -0.358024     0.715255    -1.135638
 O    -2.427603    -1.810441    -1.258160
 O    -0.095808    -2.497292    -1.503548
 O    -0.802643    -1.830770     0.731421
 O     1.089086     0.410988     1.792270
 O     0.693186     2.737690     1.150609
 O    -1.246690     1.242291     1.842939
 P     0.031484     1.269006     0.856403
 P    -0.897853    -1.266450    -0.789703
 C     1.208849     1.047952    -1.787077
 O     2.250122     1.144672    -2.273891
 C    -3.524304    -1.036253    -1.038673
 C    -3.671944    -0.272240     0.123633
 H    -2.901094    -0.284362     0.895514
 C    -4.517258    -1.010643    -2.020596
 H    -4.383767    -1.614984    -2.919823
 C    -4.797532     0.530888     0.285733
 H    -4.912551     1.140442     1.183603
 C    -5.649835    -0.221083    -1.852052
 H    -6.429949    -0.195870    -2.614526
 C    -5.781170     0.556335    -0.700699
Cl    -7.182529     1.557230    -0.495023
 C    -0.081507    -2.732952    -2.907035
 H    -0.077840    -3.829328    -3.021119
 H    -1.014944    -2.362470    -3.359842
 C     1.133800    -2.125457    -3.575496
 H     1.072185    -2.346046    -4.655846
 H     1.083042    -1.030156    -3.479679
 C     2.452961    -2.631162    -3.009511
 H     2.537866    -3.717136    -3.194446
 H     2.422342    -2.513022    -1.914902
 C     3.664497    -1.903845    -3.568760
 H     3.728889    -2.012163    -4.663617
 H     3.613243    -0.828247    -3.340269
 H     4.603690    -2.289488    -3.142744
 C    -1.014803    -3.202330     1.075540
 H    -1.742800    -3.202820     1.903344
 H    -1.465110    -3.734016     0.224433
 C     0.286395    -3.848805     1.497406
 H     0.093013    -4.919550     1.687101
 H     0.979925    -3.810532     0.639975
 C     0.921694    -3.206564     2.723471
 H     0.254713    -3.352696     3.591665
 H     0.975827    -2.117284     2.569257
 C     2.304412    -3.753107     3.035374
 H     2.282183    -4.842106     3.204417
 H     3.001973    -3.560513     2.204380
 H     2.730347    -3.284113     3.935115
 C     2.372623     0.201313     1.352680
 C     3.380709     1.092917     1.715662
 H     3.125956     1.955743     2.332221
 C     2.659585    -0.908092     0.559088
 H     1.854723    -1.588696     0.281811
 C     4.683744     0.882003     1.273683
 H     5.482529     1.575396     1.541170
 C     3.960663    -1.121929     0.117220
 H     4.200127    -1.980128    -0.511288
 C     4.965098    -0.223095     0.471371
Cl     6.580184    -0.481051    -0.100923
 C     0.413055     3.861419     0.325500
 H     0.096451     3.509638    -0.673464
 H    -0.424602     4.425604     0.770027
 C     1.651033     4.723327     0.218584
 H     1.368164     5.672558    -0.269353
 H     1.978035     4.987303     1.239896
 C     2.790639     4.059463    -0.541216
 H     2.476732     3.880720    -1.583381
 H     2.972319     3.060951    -0.114176
 C     4.078330     4.864442    -0.519678
 H     3.940841     5.863557    -0.964554
 H     4.439523     5.012447     0.511323
 H     4.876780     4.356805    -1.081307
 C    -1.204101     1.637210     3.215740
 H    -0.164757     1.612280     3.579225
 H    -1.566918     2.675530     3.283820
 C    -2.078632     0.695234     4.011241
 H    -2.157628     1.081628     5.042495
 H    -3.099771     0.727719     3.590845
 C    -1.561399    -0.735876     4.012434
 H    -0.583776    -0.764522     4.524110
 H    -1.357046    -1.031969     2.972046
 C    -2.517872    -1.722026     4.660249
 H    -2.734272    -1.453636     5.707145
 H    -3.480263    -1.754291     4.123738
 H    -2.104961    -2.742592     4.660494
