 112
scf done:    -5631.225115
 C     0.290004    -2.791021    -2.640105
 H    -0.345751    -3.083178    -3.485748
 H     1.312438    -2.610763    -2.991346
 C     0.173454    -3.668942    -1.432611
 H    -0.573630    -4.470888    -1.518458
 H     1.134309    -4.092873    -1.102725
 H    -0.165372    -3.085451    -0.487443
Co    -0.472757    -1.567637    -1.333682
 O     1.372844     0.036776     0.681498
 C     2.829949    -1.626947    -1.013611
 C     1.943373     1.044929    -1.730690
 O    -1.441809     0.860478     0.354113
 C    -3.348473    -1.112817     0.552801
 C    -1.004663    -1.148713     2.099005
 P    -1.540340    -0.803276     0.365808
 P     1.361436    -0.509783    -0.919978
 C    -1.674971    -1.169810    -2.469264
 O    -2.461132    -0.909142    -3.286675
 C     2.121320     0.943577     1.333212
 C     3.023106     0.507761     2.309295
 H     3.128971    -0.565458     2.465380
 C     1.946716     2.315754     1.119121
 H     1.220954     2.646876     0.376634
 C     3.758917     1.427649     3.050304
 H     4.465706     1.093857     3.812167
 C     2.689317     3.238907     1.848964
 H     2.565238     4.309681     1.678109
 C     3.595312     2.791845     2.810081
Cl     4.527941     3.944337     3.717586
 C     3.564978    -1.749941    -2.207206
 O     3.187429    -0.934018    -3.210606
 C     3.888049    -0.933698    -4.418819
 H     3.416151    -0.168819    -5.048501
 H     4.951344    -0.672986    -4.275233
 H     3.823959    -1.910022    -4.930633
 C     3.110715    -2.536823     0.021173
 O     2.319844    -2.475445     1.112784
 C     2.487291    -3.407705     2.141111
 H     1.717844    -3.179400     2.888574
 H     3.484426    -3.330428     2.610380
 H     2.346987    -4.442695     1.780525
 C     4.154934    -3.466071    -0.094907
 H     4.381106    -4.152014     0.720072
 C     4.606749    -2.674835    -2.335179
 H     5.177635    -2.747966    -3.259982
 C     4.897519    -3.517155    -1.268069
 H     5.709738    -4.242192    -1.359600
 C     3.245528     1.542584    -1.501404
 O     4.050608     0.775218    -0.749231
 C     5.287550     1.261112    -0.313086
 H     5.705184     0.487233     0.342868
 H     5.981470     1.429586    -1.154898
 H     5.174752     2.195794     0.261945
 C     1.067744     1.834925    -2.506587
 O    -0.165046     1.365716    -2.725997
 C    -1.050141     2.083637    -3.544098
 H    -1.939145     1.453875    -3.652690
 H    -0.615441     2.268751    -4.541453
 H    -1.339045     3.044208    -3.084306
 C     1.483575     3.077783    -3.014772
 H     0.797818     3.691203    -3.595973
 C     3.664114     2.774051    -2.015131
 H     4.668579     3.146299    -1.820058
 C     2.770891     3.529647    -2.764409
 H     3.085194     4.499003    -3.159349
 C    -2.211609     1.809041    -0.189508
 C    -1.894913     3.129395     0.163373
 H    -1.063770     3.289256     0.851476
 C    -3.275788     1.576933    -1.069214
 H    -3.524997     0.565131    -1.382995
 C    -2.620702     4.196890    -0.348473
 H    -2.368673     5.223068    -0.075341
 C    -4.011452     2.646921    -1.573905
 H    -4.837784     2.463179    -2.262602
 C    -3.686094     3.952045    -1.216315
Cl    -4.600479     5.282919    -1.858541
 C    -4.127297    -0.270475     1.375924
 O    -3.446251     0.602060     2.132065
 C    -4.111859     1.662034     2.757337
 H    -3.332002     2.287253     3.209242
 H    -4.677744     2.266667     2.028089
 H    -4.794364     1.309502     3.550248
 C    -4.010572    -2.113080    -0.187952
 O    -3.249557    -2.993574    -0.857724
 C    -3.792600    -3.697199    -1.941891
 H    -2.946914    -4.179609    -2.449000
 H    -4.287556    -3.016999    -2.653794
 H    -4.505214    -4.474905    -1.615174
 C    -5.410928    -2.182873    -0.201399
 H    -5.920191    -2.941439    -0.794629
 C    -5.524680    -0.341602     1.369458
 H    -6.120039     0.333108     1.983165
 C    -6.147979    -1.291046     0.567647
 H    -7.239195    -1.347906     0.554859
 C    -1.087001    -2.511114     2.435159
 O    -1.542742    -3.297777     1.439567
 C    -1.784900    -4.656637     1.653096
 H    -2.211310    -5.037921     0.717504
 H    -0.855034    -5.207128     1.880324
 H    -2.507763    -4.816030     2.471616
 C    -0.552634    -0.252067     3.088106
 O    -0.522654     1.057176     2.806409
 C    -0.072653     1.961546     3.774188
 H    -0.141313     2.958226     3.321280
 H     0.979346     1.778449     4.051878
 H    -0.700671     1.935695     4.682559
 C    -0.163656    -0.740752     4.347932
 H     0.204179    -0.055200     5.109244
 C    -0.733610    -2.999136     3.696174
 H    -0.819281    -4.058771     3.934207
 C    -0.262337    -2.094385     4.641187
 H     0.030204    -2.450603     5.631941
