  86
scf done:    -3724.008493
 C     2.665650    -2.201143     1.697452
 H     3.436959    -2.352185     0.932799
 H     3.134545    -2.062848     2.678326
 C     1.527816    -3.164749     1.662500
 H     1.618900    -3.945969     0.894242
 H     1.277349    -3.619699     2.630396
 H     0.525030    -2.656191     1.352147
Co     1.165938    -1.027323     1.276127
 O    -1.183005    -0.305760    -0.754614
 O    -1.878382    -1.803929     1.080016
 O    -1.725065     0.623106     1.542743
 O     1.526102     0.692278    -1.495680
 O     3.651134    -0.171862    -0.418052
 O     2.208142    -1.656143    -1.756147
 P     2.083345    -0.568771    -0.538017
 P    -0.847768    -0.554433     0.843136
 C     1.533613    -0.029100     2.636699
 O     1.908103     0.679922     3.467926
 C    -2.456237    -0.183185    -1.254376
 C    -3.148684    -1.318896    -1.670424
 H    -2.682259    -2.296892    -1.546187
 C    -3.037230     1.075832    -1.380848
 H    -2.480783     1.951053    -1.045722
 C    -4.421104    -1.185978    -2.218319
 H    -4.959239    -2.081810    -2.541079
 C    -4.311120     1.192265    -1.930875
 H    -4.761768     2.184262    -2.025384
 C    -5.026406     0.068890    -2.361147
 C    -6.385601     0.205739    -2.984395
 H    -6.907643     1.102779    -2.620957
 H    -7.018285    -0.667817    -2.768849
 H    -6.312411     0.292021    -4.081679
 C    -2.655697    -1.999560     2.264826
 H    -2.994438    -1.009845     2.611721
 C    -1.811349    -2.649385     3.344441
 H    -0.917062    -2.043470     3.555454
 H    -1.478020    -3.649183     3.025151
 H    -2.387582    -2.756235     4.275646
 C    -3.858978    -2.823215     1.860772
 H    -4.422943    -2.310197     1.068733
 H    -3.541134    -3.806136     1.479749
 H    -4.523687    -2.982676     2.722839
 C    -1.195509     1.722615     2.296643
 H    -0.126194     1.832678     2.054681
 C    -1.360624     1.430475     3.773475
 H    -0.839672     0.504148     4.052805
 H    -2.427241     1.326312     4.027161
 H    -0.936567     2.247287     4.375705
 C    -1.930629     2.968520     1.853491
 H    -1.752486     3.160586     0.787440
 H    -3.012531     2.855509     2.021843
 H    -1.574075     3.841229     2.420124
 C     1.195202     1.920602    -1.023992
 C     0.243193     2.648812    -1.743980
 H    -0.209737     2.186553    -2.622692
 C     1.785631     2.491742     0.106171
 H     2.545486     1.942403     0.663707
 C    -0.102053     3.932946    -1.341569
 H    -0.842019     4.491230    -1.922896
 C     1.414545     3.776804     0.503537
 H     1.885481     4.208167     1.391328
 C     0.471415     4.523950    -0.206049
 C     0.062488     5.898492     0.237131
 H     0.069845     6.612476    -0.600848
 H     0.733612     6.285503     1.016869
 H    -0.960019     5.896716     0.650974
 C     4.467298     0.123501    -1.564808
 H     3.809709     0.236570    -2.442373
 C     5.409365    -1.040654    -1.791061
 H     4.833543    -1.957782    -1.975974
 H     6.046394    -1.194602    -0.906347
 H     6.058461    -0.851533    -2.659592
 C     5.175005     1.434340    -1.295804
 H     4.447947     2.246693    -1.153660
 H     5.791504     1.356184    -0.387007
 H     5.829522     1.699064    -2.139792
 C     1.083043    -2.459855    -2.122654
 H     0.393513    -2.491783    -1.258181
 C     1.599439    -3.854953    -2.402628
 H     2.121095    -4.258959    -1.522672
 H     2.309659    -3.838607    -3.243793
 H     0.771191    -4.531520    -2.660708
 C     0.367123    -1.830533    -3.300095
 H     0.026340    -0.820646    -3.038290
 H     1.043656    -1.762835    -4.166024
 H    -0.509781    -2.431046    -3.585582
