  92
scf done:    -4000.919606
 C     2.718696    -1.482889    -2.238948
 H     3.073140    -1.058577    -3.184688
 H     3.572091    -1.739990    -1.599466
 C     1.666749    -2.531246    -2.358717
 H     1.289619    -2.693045    -3.376261
 H     1.931774    -3.494386    -1.900353
 H     0.706946    -2.267864    -1.745314
Co     1.183459    -0.614336    -1.406683
 O     1.735256     0.704699     1.550959
 O     2.702247    -1.535918     1.425970
 O     3.752807     0.221382     0.075952
 O    -1.605756    -1.798285    -0.941473
 O    -1.499250     0.382461     0.388422
 O    -1.673313     0.559646    -2.030158
 P    -0.846568    -0.307951    -0.938505
 P     2.263011    -0.364368     0.352482
 C     1.271295     0.693061    -2.538397
 O     1.408766     1.617808    -3.210733
 C     1.367955     1.996420     1.334904
 C     0.579020     2.603889     2.316309
 H     0.295149     2.025808     3.197201
 C     1.766902     2.730771     0.213097
 H     2.408614     2.276449    -0.541470
 C     0.178754     3.928652     2.179406
 H    -0.432625     4.419909     2.938448
 C     1.360750     4.056031     0.070615
 H     1.658353     4.641318    -0.801033
 C     0.576650     4.640132     1.054588
 F     0.194661     5.915268     0.921620
 C     1.799677    -2.136893     2.338196
 H     2.429971    -2.700614     3.044536
 H     1.283992    -1.351325     2.915761
 C     0.797589    -3.062074     1.674307
 H     0.101050    -3.423212     2.452364
 H     0.192512    -2.483030     0.958233
 C     1.426499    -4.238762     0.945653
 H     1.973759    -4.870527     1.667353
 H     2.188954    -3.848065     0.252321
 C     0.406153    -5.071135     0.187102
 H    -0.345184    -5.502630     0.868785
 H    -0.135900    -4.456659    -0.549489
 H     0.878462    -5.905674    -0.352860
 C     4.701794     0.462810     1.112657
 H     5.114606     1.467097     0.921320
 H     4.196157     0.484879     2.090317
 C     5.794416    -0.584610     1.092673
 H     6.487804    -0.372047     1.926050
 H     5.333579    -1.563155     1.307767
 C     6.560472    -0.644276    -0.221239
 H     7.040679     0.333142    -0.406581
 H     5.839770    -0.784141    -1.043537
 C     7.605693    -1.746831    -0.253097
 H     8.354488    -1.616042     0.545169
 H     7.143369    -2.736775    -0.108831
 H     8.143971    -1.768685    -1.212780
 C    -2.925556    -2.053097    -0.684207
 C    -3.952332    -1.475163    -1.432830
 H    -3.702290    -0.805825    -2.254895
 C    -3.228248    -2.965035     0.329178
 H    -2.409584    -3.432894     0.879387
 C    -5.279877    -1.774131    -1.135943
 H    -6.100242    -1.331451    -1.703739
 C    -4.552784    -3.276830     0.619818
 H    -4.811728    -3.987657     1.406486
 C    -5.566026    -2.665134    -0.109155
 F    -6.836537    -2.950944     0.173204
 C    -1.437804    -0.153609     1.702655
 H    -1.655972    -1.233577     1.674229
 H    -0.421180    -0.019570     2.099987
 C    -2.459929     0.564008     2.554351
 H    -2.320784     0.236795     3.600043
 H    -2.231883     1.643547     2.531169
 C    -3.899638     0.326220     2.119903
 H    -4.121906    -0.753549     2.169230
 H    -3.999374     0.597429     1.056305
 C    -4.909354     1.103535     2.946598
 H    -4.851012     0.832672     4.013413
 H    -4.734319     2.189244     2.874045
 H    -5.939320     0.909623     2.611394
 C    -2.594748     1.620184    -1.792426
 H    -3.258487     1.631927    -2.671996
 H    -3.209098     1.402394    -0.905810
 C    -1.891193     2.951391    -1.648277
 H    -1.232514     2.917982    -0.764417
 H    -1.234855     3.097326    -2.522880
 C    -2.878760     4.103943    -1.528363
 H    -3.481831     3.973187    -0.611966
 H    -3.596298     4.054383    -2.367425
 C    -2.216066     5.471781    -1.514509
 H    -1.525529     5.581937    -0.666314
 H    -1.635003     5.637666    -2.435871
 H    -2.961609     6.278169    -1.442892
