  70
scf done:    -3266.054836
 C    -1.372388    -3.570197    -0.285637
 H    -1.034672    -4.568166     0.017644
 H    -2.399858    -3.405532     0.059445
 C    -1.145342    -3.244496    -1.725694
 H    -0.633820    -4.027965    -2.301682
 H    -2.044427    -2.916737    -2.267997
 H    -0.436178    -2.321422    -1.864457
Co    -0.084301    -2.110506    -0.163141
 O    -1.416004     0.869818     0.291687
 C    -3.119790    -1.130151     1.221021
 C    -0.705585    -0.311049     2.541648
 O     1.813152     0.331641     0.562126
 C     2.992194    -1.351151    -1.281647
 C     0.925421     0.503544    -2.066661
 P     1.385206    -0.662437    -0.718992
 P    -1.347963    -0.744282     0.874511
 C     1.010598    -3.088759     0.727335
 O     1.694209    -3.712611     1.422838
 C    -2.470786     1.592815    -0.160453
 C    -2.797047     2.764110     0.536012
 H    -2.214530     3.009451     1.426313
 C    -3.172936     1.239388    -1.325920
 C    -2.803061     0.035105    -2.140784
 H    -2.014039    -0.558316    -1.659186
 H    -3.673171    -0.618915    -2.309072
 H    -2.429704     0.336921    -3.132909
 C    -3.834683     3.579981     0.102986
 H    -4.079379     4.489210     0.657222
 C    -4.223569     2.072940    -1.731771
 H    -4.782499     1.803589    -2.632880
 C    -4.561622     3.228000    -1.034814
 H    -5.384973     3.856158    -1.381714
 H    -3.084270    -2.168847     1.588721
 C    -3.891287    -0.248956     2.190782
 H    -3.948999     0.792915     1.847539
 H    -3.438226    -0.250868     3.193005
 H    -3.629337    -1.186600     0.245275
 H    -4.923202    -0.617643     2.299093
 H    -1.306084     0.523760     2.937603
 C    -0.668477    -1.487559     3.504384
 H    -0.060808    -2.312203     3.105588
 H    -1.674180    -1.884565     3.715012
 H     0.308359     0.072691     2.353422
 H    -0.228606    -1.183606     4.466465
 C     2.808774     1.269523     0.622725
 C     4.125466     0.860020     0.847976
 H     4.333362    -0.205546     0.953064
 C     2.478638     2.633907     0.552881
 C     1.064158     3.088584     0.355856
 H     0.870429     3.339920    -0.700775
 H     0.344565     2.310179     0.638223
 H     0.862073     3.997130     0.941600
 C     5.144548     1.800884     0.956539
 H     6.171622     1.470940     1.128734
 C     3.523617     3.558041     0.672640
 H     3.283564     4.623923     0.621378
 C     4.843969     3.158305     0.860137
 H     5.634789     3.906574     0.948017
 H     3.388446    -1.922114    -0.426632
 C     2.804216    -2.267844    -2.482328
 H     2.438801    -1.720838    -3.365735
 H     2.076173    -3.060706    -2.251770
 H     3.705169    -0.540477    -1.497952
 H     3.753746    -2.748233    -2.761331
 H     0.131294     1.123430    -1.622621
 C     2.012698     1.342522    -2.721252
 H     2.746674     0.718811    -3.253097
 H     2.564095     1.953267    -1.992744
 H     0.417103    -0.127863    -2.815694
 H     1.570986     2.026922    -3.462069
