  98
scf done:    -4032.424552
 C     0.465306    -0.352516     3.403639
 H    -0.169903    -0.716387     4.220495
 H     1.487694    -0.735259     3.508533
 C     0.356659     1.105477     3.125333
 H    -0.352249     1.654129     3.761473
 H     1.322133     1.631702     3.093009
 H    -0.039116     1.331697     2.042857
Co    -0.330716    -0.345179     1.621964
 O     1.863966     0.979458    -0.188113
 C     3.051481    -0.825179     1.476423
 C     1.642188    -1.786755    -0.842743
 O    -2.239092    -0.201606    -1.179081
 C    -3.370383     0.975327     1.013054
 C    -1.243646     2.184097    -0.401078
 P    -1.749595     0.540004     0.251715
 P     1.534434    -0.520189     0.492871
 C    -1.198475    -1.731116     2.106719
 O    -1.681509    -2.715718     2.477865
 C     2.716163     1.555069    -1.074872
 C     3.083347     0.959582    -2.281641
 H     2.703851    -0.031100    -2.528894
 C     3.122901     2.867875    -0.764298
 C     2.643002     3.522576     0.494254
 H     2.904674     4.589227     0.505204
 H     1.551545     3.427212     0.588836
 H     3.078913     3.058529     1.394373
 C     3.905003     1.646207    -3.173556
 H     4.191395     1.169501    -4.114088
 C     3.942047     3.531990    -1.679727
 H     4.263663     4.551396    -1.448677
 C     4.344086     2.932542    -2.872825
 H     4.986335     3.475241    -3.569790
 C     3.979968     0.200770     1.680724
 H     3.842316     1.157377     1.178243
 C     3.225998    -2.065309     2.131890
 C     2.258869    -3.199511     1.965932
 H     2.380518    -3.693398     0.988482
 H     1.218075    -2.845614     2.013921
 H     2.404739    -3.956370     2.748725
 C     5.094128     0.013638     2.494041
 H     5.812307     0.825874     2.627822
 C     4.349737    -2.228835     2.949753
 H     4.489269    -3.185968     3.459966
 C     5.281711    -1.210019     3.130310
 H     6.149229    -1.371699     3.774555
 C     0.391010    -2.308889    -1.198609
 H    -0.487584    -1.928089    -0.676624
 C     2.810424    -2.306867    -1.453753
 C     4.214572    -1.901819    -1.104649
 H     4.560141    -2.426736    -0.199938
 H     4.317476    -0.830121    -0.903428
 H     4.898145    -2.162210    -1.925080
 C     0.251673    -3.301148    -2.162862
 H    -0.742328    -3.681818    -2.407774
 C     2.645032    -3.298647    -2.429867
 H     3.537763    -3.700675    -2.916930
 C     1.392667    -3.792660    -2.788159
 H     1.314920    -4.571149    -3.551261
 C    -2.916804    -1.382259    -1.269545
 C    -3.487741    -2.023029    -0.169702
 H    -3.421316    -1.579013     0.821079
 C    -3.032431    -1.936578    -2.560109
 C    -2.432246    -1.245787    -3.743897
 H    -2.806229    -0.214215    -3.835824
 H    -1.336932    -1.182990    -3.652745
 H    -2.670396    -1.783499    -4.671642
 C    -4.150346    -3.238207    -0.332606
 H    -4.574296    -3.732335     0.544062
 C    -3.712528    -3.148832    -2.692910
 H    -3.806018    -3.584232    -3.691825
 C    -4.264611    -3.808624    -1.595004
 H    -4.783957    -4.759693    -1.730021
 C    -3.463586     0.802812     2.398313
 H    -2.598150     0.382644     2.919281
 C    -4.466710     1.499688     0.290926
 C    -4.458002     1.703084    -1.195823
 H    -4.580548     0.743818    -1.722825
 H    -3.514377     2.144084    -1.545091
 H    -5.284199     2.361859    -1.496616
 C    -4.620895     1.140740     3.094025
 H    -4.672140     0.998993     4.175846
 C    -5.621595     1.825847     1.011320
 H    -6.479442     2.230259     0.467019
 C    -5.706754     1.653187     2.391206
 H    -6.627155     1.921943     2.915539
 C    -1.489589     3.261754     0.464385
 H    -2.043421     3.093120     1.391175
 C    -0.529972     2.403232    -1.597268
 C    -0.236555     1.327313    -2.596053
 H     0.565468     1.644743    -3.274361
 H    -1.130189     1.106102    -3.194596
 H     0.063217     0.386520    -2.117994
 C    -1.055398     4.547990     0.162307
 H    -1.264953     5.369332     0.851169
 C    -0.102105     3.707552    -1.878966
 H     0.461365     3.879601    -2.799675
 C    -0.358529     4.772369    -1.021914
 H    -0.004829     5.774399    -1.275868
