 104
scf done:    -4009.596732
 C    -1.000188    -1.226808     3.196208
 H    -0.619807    -0.893503     4.168932
 H    -2.082210    -1.395029     3.250341
 C    -0.217994    -2.319426     2.560980
 H     0.645121    -2.677561     3.138271
 H    -0.821295    -3.173455     2.219671
 H     0.258707    -1.993057     1.535846
Co    -0.234156    -0.321680     1.641855
 O    -2.209008    -2.076029    -0.353490
 C    -3.596576    -0.551480     1.207666
 C    -2.171856     0.564933    -1.175442
 O     1.389900     0.740710    -1.087018
 C     2.745684     1.269624     1.221845
 C     2.472813    -1.452594    -0.034333
 P     1.533741     0.071190     0.475496
 P    -1.967517    -0.522518     0.323816
 C    -0.147012     1.122922     2.527321
 O    -0.156286     2.141067     3.084498
 C    -1.251498    -2.788254    -0.985652
 C    -1.195792    -4.164740    -0.734561
 H    -1.897225    -4.589314    -0.013909
 C    -0.357183    -2.223774    -1.903510
 H    -0.356148    -1.149755    -2.087274
 C    -0.274750    -4.970454    -1.396144
 H    -0.218825    -6.044192    -1.208008
 C     0.553246    -3.030726    -2.581926
 H     1.245621    -2.604224    -3.309183
 C     0.588320    -4.392017    -2.319670
 F     1.485445    -5.156686    -2.950059
 H    -3.449862    -1.459043     1.824454
 C    -4.856240    -0.793672     0.377684
 H    -4.702449    -1.641763    -0.305671
 H    -5.066898     0.092373    -0.244904
 C    -6.054314    -1.046374     1.289702
 H    -6.963303    -1.198287     0.684924
 H    -5.891068    -1.987128     1.846363
 C    -6.256584     0.096343     2.278836
 H    -7.101282    -0.121956     2.952352
 H    -6.533099     1.010173     1.721614
 C    -4.989796     0.368615     3.083057
 H    -4.775410    -0.500436     3.731640
 H    -5.137547     1.228056     3.756752
 C    -3.788349     0.617493     2.176308
 H    -3.950728     1.549449     1.610565
 H    -2.876599     0.769628     2.771614
 H    -1.127739     0.700363    -1.510527
 C    -2.694425     1.960452    -0.821677
 H    -2.124651     2.388916     0.017745
 H    -3.742052     1.883220    -0.485559
 C    -2.630684     2.883376    -2.035014
 H    -3.025722     3.877883    -1.771488
 H    -1.575365     3.033083    -2.315039
 C    -3.383829     2.302667    -3.225102
 H    -3.286380     2.966976    -4.098958
 H    -4.462902     2.253214    -2.990224
 C    -2.882593     0.902596    -3.558894
 H    -1.832115     0.963471    -3.897772
 H    -3.456543     0.474439    -4.396780
 C    -2.964715    -0.020897    -2.347326
 H    -4.019696    -0.143946    -2.059786
 H    -2.601883    -1.025467    -2.606479
 C     1.128955     2.035948    -1.388904
 C     1.436146     2.447623    -2.691925
 H     1.857751     1.715972    -3.383511
 C     0.574270     2.958252    -0.493953
 H     0.279914     2.651168     0.508914
 C     1.220702     3.762928    -3.088978
 H     1.460644     4.096448    -4.100181
 C     0.372426     4.280768    -0.885157
 H    -0.055573     5.008550    -0.193626
 C     0.700682     4.672540    -2.174791
 F     0.505288     5.937978    -2.548879
 H     2.127378     2.182691     1.283971
 C     3.978455     1.634381     0.396692
 H     3.707626     1.840762    -0.649699
 H     4.678556     0.781603     0.383535
 C     4.676391     2.845060     1.012180
 H     5.577887     3.098145     0.430792
 H     4.002763     3.717609     0.937238
 C     5.036883     2.603966     2.474536
 H     5.490060     3.508578     2.911429
 H     5.809178     1.814762     2.528159
 C     3.825583     2.166773     3.292657
 H     3.097331     2.994984     3.354978
 H     4.124990     1.938216     4.328318
 C     3.139273     0.955486     2.669060
 H     3.831679     0.099271     2.694661
 H     2.254824     0.661118     3.252909
 H     1.657504    -2.151767    -0.289915
 C     3.240594    -2.061215     1.142445
 H     2.604132    -2.122343     2.038371
 H     4.086887    -1.404820     1.403257
 C     3.790495    -3.434347     0.772954
 H     4.332586    -3.865732     1.630003
 H     2.949582    -4.117253     0.554733
 C     4.701070    -3.340556    -0.445437
 H     5.077549    -4.337620    -0.725016
 H     5.587906    -2.734365    -0.184504
 C     3.976585    -2.701151    -1.624037
 H     3.178652    -3.383722    -1.959052
 H     4.661998    -2.586166    -2.479617
 C     3.372379    -1.343567    -1.267301
 H     4.184594    -0.625098    -1.075553
 H     2.798916    -0.940600    -2.113725
