 102
scf done:    -4333.253173
 C     1.701056    -0.598599    -3.521364
 H     1.534647    -0.059177    -4.460915
 H     2.768027    -0.654451    -3.284037
 C     0.934975    -1.869864    -3.383586
 H     0.301142    -2.121765    -4.244539
 H     1.546619    -2.737337    -3.097418
 H     0.156694    -1.834907    -2.510082
Co     0.500674    -0.185063    -2.037712
 O     2.140255    -1.552630     0.517944
 O     3.530725    -0.432125    -1.139177
 O     2.168527     0.905239     0.557728
 O    -1.395852     0.044974     0.710907
 O    -2.606328     0.346675    -1.496591
 O    -1.638390    -1.942605    -0.758617
 P    -1.250020    -0.356880    -0.883380
 P     1.994664    -0.312536    -0.563435
 C     0.141604     1.281785    -2.860340
 O     0.008075     2.283175    -3.414428
 C     1.327909    -1.925656     1.553618
 C     1.222533    -1.129444     2.692228
 H     1.736155    -0.170361     2.708023
 C     0.692441    -3.173866     1.468771
 C     0.814208    -4.003823     0.229214
 H     0.115021    -4.850380     0.253541
 H     0.595360    -3.401802    -0.663341
 H     1.835005    -4.403508     0.116579
 C     0.481679    -1.579637     3.781436
 H     0.406621    -0.957045     4.676037
 C    -0.035175    -3.605075     2.581755
 H    -0.535236    -4.576168     2.535059
 C    -0.145161    -2.823542     3.730901
 H    -0.719632    -3.187588     4.585771
 C     4.649449    -0.701040    -0.379404
 C     5.243573     0.305748     0.375838
 H     4.806784     1.305235     0.377156
 C     5.187675    -1.993788    -0.444143
 C     4.528255    -3.043164    -1.284267
 H     3.499192    -3.223954    -0.939370
 H     4.463984    -2.726178    -2.337139
 H     5.082785    -3.990306    -1.241099
 C     6.397644     0.024480     1.104473
 H     6.866467     0.812397     1.698342
 C     6.346963    -2.245903     0.293898
 H     6.784409    -3.247409     0.258586
 C     6.948641    -1.253747     1.066930
 H     7.853234    -1.480291     1.635730
 C     2.373216     2.228573     0.277723
 C     2.661828     2.693098    -1.006148
 H     2.742503     1.990469    -1.835715
 C     2.303791     3.106942     1.372307
 C     1.989637     2.584986     2.738092
 H     0.998322     2.104362     2.752671
 H     2.726961     1.829379     3.052908
 H     1.987409     3.396557     3.477540
 C     2.852279     4.057481    -1.219588
 H     3.065034     4.415037    -2.229360
 C     2.516512     4.464655     1.128437
 H     2.461343     5.159106     1.971172
 C     2.779369     4.948249    -0.153233
 H     2.934081     6.017277    -0.314407
 C    -1.409521     1.332587     1.195623
 C    -0.846596     2.390664     0.489238
 H    -0.335105     2.199425    -0.454313
 C    -2.026439     1.525311     2.441720
 C    -2.621640     0.369107     3.179805
 H    -3.022278     0.688835     4.151293
 H    -3.439084    -0.084947     2.598988
 H    -1.873343    -0.419842     3.348088
 C    -0.918264     3.683138     1.002670
 H    -0.470202     4.505079     0.441164
 C    -2.070484     2.830170     2.937659
 H    -2.551759     3.002455     3.904169
 C    -1.532830     3.905869     2.230064
 H    -1.592068     4.915206     2.642795
 C    -3.644979     1.016557    -0.875116
 C    -4.468276     0.383107     0.050879
 H    -4.295340    -0.660591     0.304885
 C    -3.864458     2.347853    -1.262520
 C    -3.000532     3.003812    -2.291296
 H    -1.997457     3.217622    -1.893014
 H    -2.855549     2.357225    -3.168167
 H    -3.439759     3.954828    -2.621215
 C    -5.506938     1.091756     0.650161
 H    -6.143324     0.591057     1.383307
 C    -4.916747     3.030853    -0.646577
 H    -5.098181     4.070855    -0.930512
 C    -5.727717     2.422355     0.309048
 H    -6.538246     2.985920     0.776372
 C    -2.804356    -2.491100    -0.273725
 C    -2.964408    -2.667336     1.096614
 H    -2.165110    -2.348086     1.763664
 C    -3.781486    -2.882404    -1.199193
 C    -3.563206    -2.670866    -2.665202
 H    -4.382976    -3.104372    -3.253190
 H    -3.495697    -1.597076    -2.899496
 H    -2.616651    -3.128183    -2.992988
 C    -4.143801    -3.231567     1.577646
 H    -4.279521    -3.365506     2.653293
 C    -4.953364    -3.447746    -0.686793
 H    -5.736399    -3.755412    -1.384787
 C    -5.141848    -3.617379     0.684420
 H    -6.070879    -4.056907     1.054260
