  86
scf done:    -4272.066515
 C    -0.184127     0.316364    -3.213776
 H    -1.258685     0.088208    -3.253716
 H     0.045433     1.132546    -3.907560
 C     0.704920    -0.874670    -3.297801
 H     0.184229    -1.823356    -3.496683
 H     1.557333    -0.769639    -3.980924
 H     1.194144    -1.126538    -2.264892
Co     0.710481     0.358129    -1.472788
 O     2.580666    -1.792477     0.113143
 C     3.806395     0.496187    -0.100061
 C     1.805769     0.152785     1.835632
 O    -1.288507     0.664657     1.078572
 C    -2.120748     1.878360    -1.200056
 C    -2.446206    -0.940929    -0.803367
 P    -1.218517     0.399752    -0.585984
 P     2.109885    -0.176853     0.064733
 C     1.361043     1.925329    -1.809908
 O     1.658577     3.022931    -2.010022
 C     1.755607    -2.844136    -0.168270
 C     0.733255    -3.194253     0.711966
 H     0.568914    -2.582157     1.597968
 C     2.011258    -3.596453    -1.326236
 C     3.151061    -3.242571    -2.232390
 H     3.057232    -3.750186    -3.202012
 H     3.214828    -2.159508    -2.408502
 H     4.112619    -3.546331    -1.786568
 C    -0.056175    -4.310595     0.453260
 H    -0.857330    -4.579074     1.145280
 C     1.193899    -4.705840    -1.569486
 H     1.375745    -5.303292    -2.467139
 C     0.173350    -5.069363    -0.692419
 H    -0.440689    -5.947667    -0.904235
 C     3.999642     1.873661     0.065502
 H     3.155929     2.525771     0.302566
 C     4.906394    -0.311679    -0.402080
 H     4.768187    -1.386829    -0.515444
 C     5.261997     2.438107    -0.071510
 H     5.425701     3.509740     0.053152
 C     6.176600     0.243029    -0.546253
 H     7.045835    -0.373656    -0.782031
 C     6.337341     1.611720    -0.379988
 F     7.548231     2.146751    -0.516025
 C     2.247529    -0.735258     2.822533
 H     2.777939    -1.644554     2.531516
 C     1.148893     1.327204     2.213976
 H     0.786349     2.013437     1.447762
 C     2.009246    -0.470990     4.168052
 H     2.334667    -1.154955     4.953893
 C     0.918489     1.611744     3.555559
 H     0.394110     2.515927     3.868569
 C     1.344611     0.700672     4.514846
 F     1.113359     0.955924     5.799224
 C    -2.408566     0.714876     1.860937
 C    -3.216961     1.852658     1.891809
 H    -2.962862     2.706605     1.265175
 C    -2.690481    -0.392807     2.678692
 C    -1.781590    -1.579514     2.664473
 H    -1.748543    -2.036232     1.663442
 H    -0.752225    -1.279579     2.916588
 H    -2.112605    -2.340797     3.383834
 C    -4.344041     1.883082     2.710909
 H    -4.975587     2.774427     2.725724
 C    -3.824081    -0.334355     3.493152
 H    -4.055208    -1.191620     4.131316
 C    -4.655009     0.784637     3.508477
 H    -5.536851     0.801951     4.152749
 C    -3.188193     1.822008    -2.101303
 H    -3.588342     0.856877    -2.417764
 C    -1.618028     3.137109    -0.838279
 H    -0.764484     3.204649    -0.159456
 C    -3.758832     2.986979    -2.613172
 H    -4.592141     2.953093    -3.317209
 C    -2.182391     4.307343    -1.328905
 H    -1.799152     5.290228    -1.049595
 C    -3.252223     4.215398    -2.214601
 F    -3.795264     5.331843    -2.693222
 C    -3.799101    -0.833079    -0.439113
 H    -4.193910     0.108963    -0.054557
 C    -1.973327    -2.165658    -1.287559
 H    -0.913962    -2.265836    -1.534392
 C    -4.654258    -1.923053    -0.556441
 H    -5.704638    -1.859171    -0.267233
 C    -2.822555    -3.259171    -1.428653
 H    -2.462011    -4.217081    -1.805555
 C    -4.153031    -3.121389    -1.055702
 F    -4.971173    -4.163312    -1.175339
