  86
scf done:    -3724.007632
 C    -1.197169    -3.484326    -0.213344
 H    -0.950486    -4.398678     0.338989
 H    -2.279528    -3.310213    -0.199534
 C    -0.566851    -3.363807    -1.561473
 H     0.044357    -4.225920    -1.863722
 H    -1.272850    -3.096308    -2.359553
 H     0.201134    -2.477257    -1.626414
Co     0.012670    -1.972018     0.039356
 O    -1.297366     0.956727     0.019017
 O    -2.795807    -0.833483    -1.030667
 O    -2.591344    -0.704620     1.430880
 O     1.951588     0.208542     1.189521
 O     3.100658    -1.206770    -0.491800
 O     1.460515     0.532438    -1.339178
 P     1.596515    -0.608896    -0.188875
 P    -1.629094    -0.673181     0.099677
 C     0.673992    -2.696487     1.456296
 O     1.010351    -3.150840     2.462783
 C    -2.214252     1.941436    -0.228826
 C    -2.973302     2.470963     0.813687
 H    -2.852980     2.050769     1.812708
 C    -2.319484     2.434827    -1.539315
 C    -1.509335     1.817639    -2.636544
 H    -0.498670     1.572806    -2.283083
 H    -1.959941     0.862800    -2.953568
 H    -1.450407     2.480341    -3.511368
 C    -3.865799     3.509914     0.559836
 H    -4.462559     3.924957     1.375443
 C    -3.215831     3.484589    -1.763418
 H    -3.309080     3.888547    -2.775504
 C    -3.986590     4.019079    -0.731806
 H    -4.679107     4.838508    -0.937409
 C    -4.214816    -0.685581    -0.834966
 H    -4.383474     0.023073    -0.009541
 C    -4.812280    -2.029070    -0.469009
 H    -4.377402    -2.400726     0.468713
 H    -4.619812    -2.765404    -1.264856
 H    -5.900842    -1.942017    -0.332950
 C    -4.787355    -0.114897    -2.114113
 H    -4.365166     0.877791    -2.320063
 H    -4.566373    -0.780017    -2.963259
 H    -5.879355    -0.012131    -2.028222
 C    -2.141814    -1.233249     2.682846
 H    -1.669960    -2.211297     2.487699
 C    -3.378397    -1.432862     3.531678
 H    -4.089778    -2.106577     3.032489
 H    -3.883018    -0.470747     3.710674
 H    -3.108729    -1.870626     4.504003
 C    -1.117977    -0.315944     3.320524
 H    -0.248850    -0.183471     2.660361
 H    -1.556429     0.673051     3.527970
 H    -0.759278    -0.744319     4.268145
 C     2.853491     1.232305     1.359059
 C     4.221721     1.014594     1.201988
 H     4.563290     0.020276     0.916195
 C     2.346673     2.483914     1.743752
 C     0.874061     2.686083     1.915331
 H     0.626787     3.754492     1.977055
 H     0.309230     2.231368     1.090327
 H     0.518046     2.200046     2.837818
 C     5.113687     2.065162     1.405872
 H     6.185585     1.896225     1.278634
 C     3.267936     3.515990     1.949250
 H     2.892265     4.499977     2.242890
 C     4.637088     3.320000     1.778258
 H     5.331242     4.147654     1.940535
 C     3.313330    -2.221323    -1.480310
 H     2.511214    -2.152512    -2.240637
 C     3.261844    -3.591254    -0.835061
 H     2.272881    -3.759375    -0.387891
 H     4.018869    -3.664773    -0.039809
 H     3.454889    -4.377575    -1.580157
 C     4.644516    -1.931014    -2.141792
 H     4.651818    -0.933895    -2.603805
 H     5.452643    -1.970901    -1.395564
 H     4.857916    -2.676655    -2.921835
 C     2.508383     1.233438    -2.030426
 H     3.476184     0.913159    -1.612232
 C     2.334424     2.721606    -1.812638
 H     2.412175     2.973714    -0.747433
 H     1.354073     3.056001    -2.183399
 H     3.117745     3.273853    -2.352953
 C     2.430757     0.845690    -3.494426
 H     2.540873    -0.240315    -3.625072
 H     1.458981     1.143038    -3.916769
 H     3.225800     1.344489    -4.068628
