 100
scf done:    -3857.257447
 C    -0.513562    -3.444338    -1.890341
 H    -0.100601    -4.457045    -1.811382
 H    -1.607223    -3.496399    -1.950768
 C     0.132271    -2.588681    -2.932708
 H     0.946722    -3.074131    -3.488543
 H    -0.570235    -2.125832    -3.641525
 H     0.659271    -1.650651    -2.471784
Co     0.328454    -2.064223    -0.802931
 O    -1.358358     0.680203    -0.583519
 C    -3.100681    -1.430902    -0.981068
 C    -1.759347    -1.005431     1.545638
 O     1.240715     0.198228     1.252087
 C     3.400368    -0.996245     0.107408
 C     1.818842     0.896704    -1.392760
 P     1.664607    -0.512788    -0.221560
 P    -1.454466    -1.003954    -0.262995
 C     1.069369    -3.252524     0.175602
 O     1.512468    -4.056164     0.883591
 C    -2.376406     1.577019    -0.517652
 C    -2.741492     2.172094     0.695455
 H    -2.210534     1.897866     1.608116
 C    -3.032339     1.952814    -1.693995
 H    -2.722027     1.498483    -2.636596
 C    -3.777946     3.101431     0.737213
 H    -4.081768     3.571858     1.674134
 C    -4.068512     2.881008    -1.658593
 H    -4.596930     3.180827    -2.565454
 C    -4.435721     3.439247    -0.439413
 F    -5.430261     4.325714    -0.400603
 H    -3.082481    -2.529409    -1.074128
 H    -3.072305    -1.051037    -2.016375
 C    -4.374811    -1.008442    -0.259839
 H    -4.384181    -1.465808     0.742954
 H    -4.394084     0.080884    -0.096364
 C    -5.664903    -1.410205    -0.982083
 H    -5.618052    -2.499590    -1.171588
 C    -6.869437    -1.138523    -0.087973
 H    -6.791616    -1.677561     0.869137
 H    -7.809054    -1.445718    -0.572668
 H    -6.948726    -0.062529     0.140807
 C    -5.822213    -0.703112    -2.324131
 H    -6.758164    -1.001459    -2.821128
 H    -4.997395    -0.931624    -3.015985
 H    -5.848743     0.390415    -2.184593
 H    -2.625607    -0.376071     1.801668
 H    -0.858637    -0.525595     1.956076
 C    -1.923778    -2.418388     2.099098
 H    -2.970927    -2.743044     1.972463
 H    -1.312173    -3.122185     1.507455
 C    -1.524684    -2.553028     3.572110
 H    -2.025627    -1.739978     4.131862
 C    -2.010807    -3.882858     4.135871
 H    -3.105379    -3.979972     4.059472
 H    -1.735147    -3.995497     5.195964
 H    -1.560431    -4.724813     3.584282
 C    -0.017053    -2.406817     3.757999
 H     0.254303    -2.431882     4.824850
 H     0.367981    -1.466075     3.335990
 H     0.513338    -3.229281     3.251527
 C     1.642380     1.428579     1.678001
 C     0.910326     2.561078     1.311941
 H     0.030245     2.435547     0.680957
 C     2.761499     1.555891     2.503995
 H     3.305601     0.658789     2.804444
 C     1.319218     3.822608     1.733540
 H     0.768873     4.722019     1.451423
 C     3.173667     2.816352     2.929765
 H     4.047986     2.943770     3.570621
 C     2.453313     3.936085     2.529891
 F     2.852995     5.143915     2.927482
 H     3.352684    -1.703684     0.952554
 H     3.979872    -0.119597     0.435326
 C     4.017444    -1.670910    -1.111936
 H     3.279035    -2.382101    -1.522732
 H     4.195997    -0.921794    -1.905550
 C     5.323090    -2.417830    -0.834514
 H     5.104041    -3.172570    -0.056165
 C     5.784097    -3.155378    -2.085694
 H     5.008652    -3.845816    -2.452196
 H     6.695182    -3.742750    -1.893527
 H     6.011550    -2.445481    -2.898785
 C     6.415659    -1.495389    -0.306425
 H     7.349079    -2.049722    -0.123237
 H     6.128560    -1.012861     0.640070
 H     6.640280    -0.697438    -1.034744
 H     0.843929     1.408449    -1.334819
 H     1.828182     0.414138    -2.384405
 C     2.986555     1.867856    -1.249868
 H     3.163394     2.104740    -0.190786
 H     3.915176     1.390846    -1.610973
 C     2.780652     3.187609    -1.997293
 H     1.835400     3.624131    -1.622625
 C     3.904455     4.162105    -1.667344
 H     3.967363     4.345184    -0.583138
 H     3.754777     5.132475    -2.165521
 H     4.879256     3.765620    -1.997679
 C     2.643691     2.987167    -3.502020
 H     2.493738     3.947553    -4.018944
 H     1.790844     2.339979    -3.757129
 H     3.553946     2.523896    -3.919313
