  92
scf done:    -4152.245156
 C    -0.822331     0.451196     4.046741
 H    -0.417162     1.059577     4.864036
 H    -1.900057     0.628446     3.958745
 C    -0.415476    -0.986944     4.082143
 H     0.208382    -1.267969     4.942286
 H    -1.246831    -1.700184     3.981529
 H     0.268619    -1.277691     3.177933
Co     0.264797     0.306658     2.432608
 O    -1.578123    -1.438241     0.535001
 C    -3.091954     0.628771     1.657787
 C    -1.264009     1.017801    -0.562424
 O     1.886526    -0.036285    -0.480376
 C     3.489459    -0.236681     1.731183
 C     1.634174    -2.321032     0.801951
 P     1.758215    -0.489273     1.121380
 P    -1.388154     0.165569     1.063217
 C     1.153349     1.682566     2.914279
 O     1.697478     2.663824     3.204101
 C    -2.653490    -2.047653    -0.040050
 C    -3.017128    -1.814792    -1.369573
 H    -2.449075    -1.107527    -1.973589
 C    -3.349221    -2.997693     0.711047
 H    -3.028816    -3.190309     1.736793
 C    -4.107853    -2.479330    -1.920966
 H    -4.422786    -2.295179    -2.949314
 C    -4.433409    -3.674592     0.161165
 H    -4.994924    -4.414818     0.733995
 C    -4.810608    -3.393246    -1.146121
 F    -5.863681    -4.020506    -1.670730
 H    -2.924708     1.608407     2.134758
 H    -3.312389    -0.073194     2.477470
 C    -4.243957     0.699843     0.698436
 C    -5.250029    -0.273633     0.715968
 H    -5.195947    -1.086309     1.442926
 C    -4.357786     1.752276    -0.220859
 H    -3.613411     2.552228    -0.224420
 C    -6.307398    -0.232078    -0.188105
 H    -7.070738    -1.013467    -0.162962
 C    -5.415093     1.796275    -1.127275
 H    -5.479595     2.623941    -1.837927
 C    -6.388266     0.798368    -1.123467
 H    -7.214463     0.830942    -1.837572
 H    -2.173028     0.785541    -1.139027
 H    -0.423212     0.520085    -1.072149
 C    -1.057475     2.510839    -0.558545
 C    -1.004033     3.178005    -1.789664
 H    -1.097707     2.601505    -2.713874
 C    -0.925662     3.266737     0.610716
 H    -0.932206     2.765856     1.581368
 C    -0.817559     4.555220    -1.851291
 H    -0.759974     5.051979    -2.822623
 C    -0.741763     4.647685     0.552605
 H    -0.632368     5.213033     1.481113
 C    -0.685620     5.297508    -0.677376
 H    -0.535237     6.378576    -0.724607
 C     2.069329     1.184619    -1.044490
 C     2.091654     1.200125    -2.443359
 H     1.981442     0.251470    -2.972846
 C     2.224028     2.373485    -0.329649
 H     2.189338     2.385734     0.758205
 C     2.250406     2.400817    -3.125628
 H     2.261197     2.437449    -4.216495
 C     2.389342     3.575847    -1.014398
 H     2.487384     4.517264    -0.472638
 C     2.389331     3.578897    -2.400401
 F     2.510183     4.736837    -3.054173
 H     3.444194    -0.550611     2.786176
 H     3.635241     0.855343     1.750577
 C     4.595512    -0.928960     1.001096
 C     5.024657    -0.480376    -0.254969
 H     4.563658     0.403416    -0.701105
 C     5.214061    -2.056745     1.555289
 H     4.901337    -2.409728     2.542308
 C     6.030730    -1.153088    -0.942118
 H     6.346667    -0.792135    -1.923661
 C     6.225200    -2.729035     0.870237
 H     6.696598    -3.605646     1.320963
 C     6.632785    -2.281747    -0.385389
 H     7.423037    -2.807379    -0.926435
 H     0.621593    -2.587607     1.135903
 H     2.358461    -2.804490     1.476531
 C     1.834420    -2.758592    -0.621274
 C     3.073760    -3.202742    -1.089520
 H     3.922701    -3.261229    -0.406534
 C     0.761286    -2.698168    -1.519393
 H    -0.209900    -2.358522    -1.157630
 C     3.240757    -3.563283    -2.425528
 H     4.220093    -3.903933    -2.770473
 C     0.925745    -3.059044    -2.853323
 H     0.073012    -3.009712    -3.535452
 C     2.170589    -3.488519    -3.314755
 H     2.302862    -3.772139    -4.361748
