 102
scf done:    -4333.083046
 C    -1.483283    -3.566582    -0.148424
 H    -2.573976    -3.468255    -0.106762
 H    -1.200390    -4.397133    -0.806217
 C    -0.774757    -3.540862     1.161596
 H    -1.443968    -3.505222     2.033384
 H    -0.007975    -4.316434     1.296487
 H    -0.176842    -2.546609     1.320443
Co    -0.441115    -1.927663    -0.300852
 O     1.415999     0.343171     1.198134
 C     2.572072    -2.056816     0.646995
 C     2.126827     0.024325    -1.418354
 O    -1.913489     0.637107    -1.389464
 C    -3.729882    -1.077879    -0.527722
 C    -2.333583     0.531288     1.342558
 P    -2.033671    -0.505511    -0.139981
 P     1.371026    -0.847800    -0.013413
 C    -0.032049    -2.424460    -1.884112
 O     0.157331    -2.769724    -2.971526
 C     2.403010     1.272315     1.391234
 C     3.290436     1.136320     2.460640
 H     3.217677     0.264206     3.109734
 C     2.502656     2.391415     0.561292
 H     1.816905     2.506121    -0.277584
 C     4.264279     2.103977     2.688435
 H     4.950678     1.978534     3.530936
 C     3.485659     3.348749     0.798989
 H     3.550517     4.213251     0.132091
 C     4.385512     3.228423     1.863262
 C     5.421080     4.281948     2.132804
 H     5.683820     4.832765     1.217846
 H     6.343328     3.846491     2.545620
 H     5.055920     5.021728     2.865128
 C     2.701459    -2.245299     2.020840
 H     2.163469    -1.575835     2.695288
 C     3.209413    -2.960138    -0.226459
 O     2.995253    -2.748568    -1.534364
 C     3.421602    -3.684510    -2.482571
 H     4.523158    -3.730514    -2.544044
 H     3.015496    -3.351469    -3.445274
 H     3.029121    -4.691534    -2.259951
 C     3.481761    -3.280898     2.538714
 H     3.574033    -3.409999     3.619117
 C     3.993973    -3.996299     0.284342
 H     4.497236    -4.690391    -0.389634
 C     4.130700    -4.147427     1.665835
 H     4.745761    -4.962282     2.055415
 C     1.255834     0.496768    -2.401247
 H     0.193517     0.255976    -2.318573
 C     3.498631     0.339184    -1.503191
 O     4.282997    -0.125422    -0.519163
 C     5.602081     0.326867    -0.403279
 H     6.225772    -0.004605    -1.251969
 H     5.996404    -0.110862     0.522134
 H     5.641458     1.426436    -0.324383
 C     1.719453     1.280393    -3.456646
 H     1.020171     1.653053    -4.207080
 C     3.966990     1.116516    -2.565930
 H     5.024793     1.369703    -2.639465
 C     3.074929     1.583174    -3.531972
 H     3.455108     2.196449    -4.353059
 C    -1.718831     1.974365    -1.301326
 C    -0.857257     2.554056    -0.368688
 H    -0.327989     1.924241     0.346174
 C    -2.377471     2.790946    -2.225656
 H    -3.048660     2.325850    -2.950180
 C    -0.683683     3.936886    -0.352746
 H    -0.010370     4.371034     0.391954
 C    -2.182691     4.167239    -2.203952
 H    -2.707762     4.790738    -2.933876
 C    -1.336735     4.771673    -1.263745
 C    -1.114796     6.257125    -1.262294
 H    -0.726621     6.604235    -0.293805
 H    -2.045583     6.806335    -1.471186
 H    -0.384522     6.554289    -2.034033
 C    -4.323971    -0.869390    -1.769267
 H    -3.777554    -0.289807    -2.515034
 C    -4.418612    -1.831439     0.438881
 O    -3.764295    -2.013779     1.608288
 C    -4.396040    -2.687789     2.656862
 H    -5.335247    -2.189561     2.954118
 H    -3.700397    -2.666154     3.505557
 H    -4.614071    -3.738804     2.396637
 C    -5.592202    -1.377996    -2.051616
 H    -6.046008    -1.203836    -3.029641
 C    -5.691703    -2.337670     0.167443
 H    -6.232725    -2.915418     0.917437
 C    -6.272054    -2.106136    -1.080542
 H    -7.266525    -2.508166    -1.289180
 C    -1.515644     0.316385     2.449714
 H    -0.730182    -0.437664     2.367134
 C    -3.334704     1.521149     1.413623
 O    -4.093242     1.682444     0.318670
 C    -4.967424     2.770640     0.230940
 H    -5.769156     2.715521     0.987972
 H    -5.418936     2.723759    -0.767712
 H    -4.428381     3.727943     0.335551
 C    -1.664266     1.061209     3.618126
 H    -1.006609     0.885142     4.471587
 C    -3.480783     2.281858     2.578373
 H    -4.239753     3.062210     2.638215
 C    -2.647192     2.044870     3.671224
 H    -2.771248     2.648426     4.574116
