  86
scf done:    -5713.176269
 C     0.165119     2.799523    -1.758428
 H    -0.888340     3.099934    -1.810742
 H     0.822777     3.669482    -1.657035
 C     0.612099     1.776740    -2.725010
 H    -0.134147     1.496733    -3.483890
 H     1.585770     1.963496    -3.197896
 H     0.748778     0.703478    -2.214586
Co     0.593496     1.253522    -0.645308
 O     2.426330    -1.431762    -1.292181
 C     3.791871     0.614262    -0.533326
 C     2.396139    -0.898854     1.399113
 O    -1.451997     0.112412     1.528811
 C    -2.497472     2.130862     0.034229
 C    -2.483338    -0.529298    -0.948161
 P    -1.402268     0.662850    -0.074514
 P     2.152328    -0.143356    -0.241129
 C     1.133448     2.348640     0.547655
 O     1.429953     3.108068     1.367435
 C     1.531866    -2.402140    -1.628624
 C     0.868522    -3.158730    -0.663254
 H     1.031087    -2.940307     0.392407
 C     1.360248    -2.662540    -2.999949
 C     2.093351    -1.844100    -4.018223
 H     1.793412    -2.120501    -5.037910
 H     1.905464    -0.767668    -3.882819
 H     3.182309    -1.987746    -3.931185
 C     0.024839    -4.195926    -1.055536
 H    -0.492224    -4.785953    -0.296033
 C     0.514802    -3.714090    -3.363259
 H     0.378908    -3.934097    -4.426029
 C    -0.151261    -4.479474    -2.406477
 H    -0.811504    -5.291682    -2.717840
 C     4.448758     0.491280    -1.761634
 H     4.025797    -0.146917    -2.538160
 C     4.354880     1.425685     0.459842
 H     3.856351     1.538844     1.425836
 C     5.646045     1.162593    -1.997534
 H     6.163469     1.064394    -2.953273
 C     5.550270     2.098281     0.236162
 H     5.991483     2.726811     1.011139
 C     6.190382     1.964049    -0.996471
Cl     7.679241     2.799683    -1.282646
 C     1.469056    -0.659552     2.415548
 H     0.600113    -0.027195     2.220634
 C     3.485479    -1.748402     1.637007
 H     4.209297    -1.940032     0.840522
 C     1.626756    -1.254896     3.665972
 H     0.906653    -1.073938     4.465583
 C     3.645629    -2.354787     2.875726
 H     4.486171    -3.022090     3.072580
 C     2.712042    -2.100424     3.885183
Cl     2.909833    -2.853706     5.429116
 C    -2.560799    -0.365429     2.179503
 C    -3.480621     0.513453     2.753044
 H    -3.316972     1.586951     2.668253
 C    -2.722113    -1.757184     2.291388
 C    -1.709723    -2.685787     1.701575
 H    -1.624957    -2.543438     0.614199
 H    -0.710442    -2.500875     2.124817
 H    -1.980392    -3.733318     1.891672
 C    -4.600472     0.014804     3.415293
 H    -5.319698     0.708400     3.856909
 C    -3.852403    -2.229753     2.964491
 H    -3.993733    -3.310268     3.054034
 C    -4.792653    -1.360999     3.515190
 H    -5.668451    -1.760010     4.031735
 C    -2.181992     3.112495     0.986556
 H    -1.371999     2.936606     1.698728
 C    -3.506830     2.402961    -0.893996
 H    -3.758782     1.668647    -1.661984
 C    -2.879649     4.311497     1.040385
 H    -2.636896     5.068156     1.788148
 C    -4.208446     3.608050    -0.859699
 H    -4.998282     3.815485    -1.583436
 C    -3.896296     4.552823     0.113082
Cl    -4.767134     6.047252     0.169990
 C    -3.825157    -0.771296    -0.607979
 H    -4.300223    -0.212139     0.200013
 C    -1.917449    -1.248394    -2.005735
 H    -0.869054    -1.083794    -2.266532
 C    -4.569850    -1.724509    -1.292592
 H    -5.607044    -1.924893    -1.019790
 C    -2.659605    -2.186711    -2.716829
 H    -2.212917    -2.742100    -3.540911
 C    -3.979718    -2.426571    -2.345180
Cl    -4.902873    -3.614089    -3.201519
