  86
scf done:    -5713.184194
 C    -1.788529     0.076865    -3.185009
 H    -1.789106    -0.659531    -3.996637
 H    -2.814934     0.402308    -2.968097
 C    -0.792771     1.177300    -3.319905
 H    -0.123552     1.091743    -4.186659
 H    -1.221104     2.188323    -3.264451
 H    -0.054695     1.229095    -2.406496
Co    -0.593314    -0.271972    -1.678450
 O    -3.103684     1.421390    -0.305432
 C    -3.643855    -1.128140    -0.550912
 C    -1.972317    -0.217223     1.482944
 O     1.243617    -1.533782     0.564694
 C     2.742104    -0.195288    -1.331838
 C     1.440767     1.168217     0.752633
 P     1.147218    -0.191890    -0.433246
 P    -2.202696    -0.016526    -0.323194
 C    -0.247705    -1.871565    -2.212013
 O    -0.098742    -2.981531    -2.502698
 C    -2.604761     2.585198    -0.805073
 C    -3.352424     3.268461    -1.766500
 H    -4.301957     2.840181    -2.093365
 C    -1.386276     3.108686    -0.374411
 H    -0.803753     2.581930     0.382911
 C    -2.874348     4.462235    -2.295858
 H    -3.466877     4.985613    -3.051640
 C    -0.917499     4.301777    -0.921159
 H     0.041228     4.697920    -0.576582
 C    -1.645024     5.000434    -1.889604
 C    -1.147376     6.299544    -2.454286
 H    -1.321363     6.361374    -3.539162
 H    -0.070780     6.430502    -2.274673
 H    -1.664839     7.157738    -1.993973
 C    -4.885330    -0.801586     0.010952
 H    -5.001091     0.136434     0.557551
 C    -3.511018    -2.325336    -1.256517
 H    -2.553042    -2.588375    -1.705947
 C    -5.974006    -1.653158    -0.130585
 H    -6.944297    -1.401153     0.300489
 C    -4.592153    -3.193565    -1.395436
 H    -4.489230    -4.130971    -1.944126
 C    -5.818331    -2.849881    -0.832688
Cl    -7.170503    -3.917517    -1.006521
 C    -1.443295    -1.423245     1.960004
 H    -1.207201    -2.230822     1.263427
 C    -2.258649     0.808250     2.387993
 H    -2.687035     1.744698     2.025569
 C    -1.173052    -1.593001     3.313210
 H    -0.744516    -2.524515     3.686236
 C    -1.992148     0.650600     3.746324
 H    -2.201930     1.453516     4.454991
 C    -1.436531    -0.544491     4.197616
Cl    -1.047544    -0.724094     5.876662
 C     2.403215    -2.176618     0.912057
 C     3.017602    -1.919278     2.135037
 H     2.578731    -1.190479     2.817632
 C     2.952339    -3.114596     0.036428
 H     2.449602    -3.309224    -0.913133
 C     4.193454    -2.591237     2.467383
 H     4.672183    -2.381891     3.427928
 C     4.126814    -3.772135     0.381006
 H     4.554570    -4.498161    -0.315921
 C     4.773390    -3.521439     1.599456
 C     6.034681    -4.249973     1.962746
 H     6.516609    -3.806532     2.845353
 H     6.760023    -4.233979     1.134860
 H     5.830063    -5.308580     2.192518
 C     2.748019    -0.441039    -2.708049
 H     1.794843    -0.582672    -3.223124
 C     3.965175    -0.006552    -0.670642
 H     3.983797     0.193827     0.402467
 C     3.943676    -0.509563    -3.417711
 H     3.949494    -0.699398    -4.492036
 C     5.166046    -0.082866    -1.363689
 H     6.119017     0.050022    -0.849635
 C     5.146967    -0.336957    -2.736667
Cl     6.639956    -0.433533    -3.603071
 C     1.064807     1.053119     2.093620
 H     0.661639     0.109864     2.464022
 C     1.944888     2.392674     0.292825
 H     2.241680     2.505532    -0.753373
 C     1.189084     2.131563     2.965644
 H     0.890402     2.034691     4.010640
 C     2.075869     3.476566     1.153437
 H     2.475340     4.428742     0.800354
 C     1.691316     3.340344     2.488885
Cl     1.842049     4.689527     3.560250
