  98
scf done:    -4032.435701
 C     0.291787     2.713324    -1.914753
 H    -0.754506     3.011110    -2.055120
 H     0.949991     3.585633    -1.838360
 C     0.791220     1.616265    -2.767649
 H     0.091839     1.278169    -3.547452
 H     1.794554     1.761672    -3.190923
 H     0.886633     0.584990    -2.166764
Co     0.636898     1.258024    -0.660821
 O     2.547905    -1.431156    -0.984397
 C     3.834237     0.696842    -0.309235
 C     2.338059    -0.687544     1.652820
 O    -1.567941     0.247180     1.429857
 C    -2.504832     2.136358    -0.292680
 C    -2.391089    -0.591413    -1.066531
 P    -1.396096     0.679185    -0.205158
 P     2.193523    -0.067484    -0.052399
 C     1.063870     2.440722     0.491253
 O     1.285326     3.262676     1.274647
 C     1.702846    -2.455273    -1.273591
 C     0.992987    -3.133425    -0.282649
 H     1.077887    -2.806231     0.753782
 C     1.628064    -2.855015    -2.620541
 C     2.403750    -2.112745    -3.665105
 H     2.182964    -2.497487    -4.669964
 H     2.173242    -1.036128    -3.647753
 H     3.488110    -2.204162    -3.492468
 C     0.202872    -4.229160    -0.623762
 H    -0.350698    -4.756130     0.156210
 C     0.835182    -3.962150    -2.931311
 H     0.775706    -4.288006    -3.973824
 C     0.125055    -4.650104    -1.947765
 H    -0.491236    -5.510324    -2.217872
 C     4.575836     0.486217    -1.473768
 H     4.218976    -0.226367    -2.218298
 C     4.317362     1.605677     0.642007
 H     3.752186     1.789773     1.559359
 C     5.774211     1.169114    -1.679381
 H     6.343649     0.987495    -2.595405
 C     5.513239     2.278525     0.429823
 H     5.874497     2.979260     1.187960
 C     6.264884     2.075944    -0.736696
 C     7.551528     2.816436    -0.955705
 H     7.380544     3.903918    -1.005061
 H     8.259615     2.639573    -0.130612
 H     8.039441     2.510165    -1.891598
 C     3.437966    -1.463415     2.045817
 H     4.237314    -1.671274     1.329492
 C     1.316759    -0.430045     2.567751
 H     0.441552     0.143907     2.255327
 C     3.504323    -1.972154     3.335159
 H     4.362272    -2.582699     3.631169
 C     1.398247    -0.937738     3.864492
 H     0.590150    -0.730927     4.571584
 C     2.486504    -1.715559     4.268920
 C     2.582147    -2.256093     5.664907
 H     3.375209    -1.741153     6.231638
 H     1.639776    -2.124427     6.214346
 H     2.832331    -3.328138     5.662769
 C    -2.718564    -0.196263     2.024404
 C    -3.688308     0.708689     2.459325
 H    -3.528663     1.774669     2.301720
 C    -2.876955    -1.578289     2.229070
 C    -1.816143    -2.533081     1.784000
 H    -1.673119    -2.486937     0.694186
 H    -0.845786    -2.286740     2.241568
 H    -2.079095    -3.565305     2.053526
 C    -4.849702     0.244703     3.073441
 H    -5.606960     0.958905     3.405393
 C    -4.049349    -2.015562     2.851703
 H    -4.186846    -3.088556     3.011914
 C    -5.036074    -1.122156     3.264866
 H    -5.944153    -1.494111     3.744888
 C    -2.282528     3.189240     0.609628
 H    -1.539195     3.073140     1.402431
 C    -3.425787     2.334375    -1.323642
 H    -3.604911     1.544417    -2.056278
 C    -2.990111     4.377735     0.504102
 H    -2.803472     5.178755     1.225279
 C    -4.125837     3.537759    -1.432140
 H    -4.843713     3.667532    -2.246964
 C    -3.929185     4.576006    -0.520567
 C    -4.683454     5.868528    -0.626179
 H    -5.348915     5.877675    -1.500645
 H    -5.300599     6.043454     0.269779
 H    -3.995589     6.724449    -0.714424
 C    -3.759624    -0.810405    -0.831536
 H    -4.302566    -0.184394    -0.121139
 C    -1.737080    -1.402667    -1.997403
 H    -0.668073    -1.260897    -2.174778
 C    -4.434046    -1.824235    -1.499215
 H    -5.495016    -1.988469    -1.290176
 C    -2.425281    -2.402865    -2.680767
 H    -1.888784    -3.022037    -3.402762
 C    -3.780845    -2.636717    -2.437908
 C    -4.527796    -3.716576    -3.163572
 H    -3.850423    -4.347057    -3.756233
 H    -5.072771    -4.365663    -2.460694
 H    -5.275383    -3.287663    -3.850718
