  96
scf done:    -5173.608241
 C    -1.726748     1.296374    -3.518850
 H    -2.637628     0.685950    -3.521538
 H    -1.959624     2.335788    -3.776671
 C    -0.555583     0.711348    -4.233073
 H    -0.755791    -0.255810    -4.714595
 H    -0.057640     1.391716    -4.936764
 H     0.318876     0.423506    -3.505639
Co    -0.466460     1.011161    -2.057634
 O     1.700352    -0.899045    -0.627322
 O     2.652959     1.125003    -1.869392
 O     1.490905     1.417844     0.407627
 O    -3.208470    -0.670872    -1.423106
 O    -1.199365    -2.069671    -1.628335
 O    -1.462805    -0.751842     0.449446
 P    -1.563113    -0.536513    -1.200235
 P     1.318736     0.649676    -1.035820
 C    -0.566184     2.667611    -1.583191
 O    -0.700768     3.749759    -1.208643
 C     2.262890    -1.347323     0.543474
 C     3.594374    -1.758655     0.561063
 H     4.192290    -1.700945    -0.348445
 C     1.479005    -1.424826     1.694838
 H     0.435149    -1.113711     1.646684
 C     4.153033    -2.229579     1.745840
 H     5.195976    -2.548183     1.776161
 C     2.037899    -1.892962     2.880149
 H     1.438035    -1.950513     3.789599
 C     3.375856    -2.286967     2.902138
Cl     4.078281    -2.858589     4.379794
 C     3.866355     0.481471    -1.954327
 C     3.987970    -0.651787    -2.755981
 H     3.110820    -1.032829    -3.281838
 C     4.969928     0.982569    -1.269064
 H     4.862652     1.873246    -0.649291
 C     5.217230    -1.298560    -2.847721
 H     5.302280    -2.195173    -3.467594
 C     6.191989     0.323805    -1.374041
 H     7.051887     0.715461    -0.823912
 C     6.341152    -0.827517    -2.156965
 C     7.670125    -1.514458    -2.280215
 H     8.253408    -1.097635    -3.118333
 H     7.552270    -2.591279    -2.468956
 H     8.274064    -1.390361    -1.369722
 C     2.575724     2.143341     0.848309
 C     2.810975     3.412639     0.324682
 H     2.137574     3.812315    -0.435436
 C     3.406500     1.617316     1.832901
 H     3.204202     0.625704     2.237962
 C     3.907903     4.142469     0.772998
 H     4.095752     5.133307     0.350657
 C     4.495730     2.364686     2.273524
 H     5.150532     1.942987     3.040799
 C     4.772770     3.633482     1.750905
 C     5.936468     4.440793     2.248343
 H     5.627429     5.117339     3.062661
 H     6.364384     5.066019     1.451163
 H     6.734433     3.796454     2.644355
 C    -4.201050     0.174013    -1.016016
 C    -4.013261     1.544393    -0.832302
 H    -3.044964     1.993116    -1.048351
 C    -5.445986    -0.402873    -0.760702
 H    -5.570476    -1.475574    -0.918895
 C    -5.048434     2.320145    -0.323040
 H    -4.896035     3.385065    -0.142011
 C    -6.486391     0.374640    -0.263790
 H    -7.456023    -0.071978    -0.038057
 C    -6.274743     1.731331    -0.025129
Cl    -7.542463     2.693345     0.671178
 C    -1.714746    -3.198209    -1.027122
 C    -2.925239    -3.731874    -1.457939
 H    -3.475024    -3.228112    -2.253664
 C    -0.991221    -3.817943    -0.010823
 H    -0.045590    -3.379588     0.311015
 C    -3.411087    -4.893352    -0.859987
 H    -4.363173    -5.310070    -1.200431
 C    -1.490287    -4.976305     0.574653
 H    -0.919239    -5.456167     1.374503
 C    -2.707655    -5.536068     0.164135
 C    -3.222589    -6.799560     0.791044
 H    -4.282711    -6.965167     0.552309
 H    -3.120176    -6.776050     1.886647
 H    -2.661501    -7.678545     0.432578
 C    -2.141502     0.076631     1.319424
 C    -3.334443    -0.378306     1.878102
 H    -3.677694    -1.386648     1.640206
 C    -1.659874     1.348205     1.612270
 H    -0.706521     1.674083     1.195104
 C    -4.082991     0.476752     2.676348
 H    -5.036680     0.129941     3.083301
 C    -2.424958     2.192347     2.416683
 H    -2.058137     3.201163     2.624078
 C    -3.656751     1.786536     2.938663
 C    -4.525318     2.723318     3.726132
 H    -5.441474     2.964938     3.162085
 H    -4.006717     3.666673     3.947142
 H    -4.841524     2.275999     4.681287
