 110
scf done:    -4189.579759
 C    -0.462062    -1.687711    -3.041675
 H    -0.445905    -2.710425    -3.437119
 H    -1.463978    -1.266801    -3.178845
 C     0.668281    -0.821743    -3.500012
 H     1.353867    -1.304946    -4.210659
 H     0.368131     0.159977    -3.895881
 H     1.389831    -0.542035    -2.626847
Co     0.484001    -1.356669    -1.364844
 O    -0.319371     1.105460     0.459203
 C    -1.912098     1.107823    -1.809920
 C    -2.349577    -0.613624     0.525865
 O     1.978064    -1.787170     1.494497
 C     3.635274    -1.744812    -0.591739
 C     2.616030     0.668724     0.673066
 P     2.077008    -0.971534     0.021658
 P    -1.020220    -0.020550    -0.604796
 C     0.654856    -3.050461    -1.180064
 O     0.697405    -4.202825    -1.067558
 C    -0.834733     2.260976     0.956739
 C    -0.431907     3.474556     0.392902
 H     0.283377     3.461777    -0.432502
 C    -1.692247     2.266012     2.059791
 H    -1.957994     1.321843     2.535455
 C    -0.933016     4.673681     0.891987
 H    -0.612963     5.615014     0.436843
 C    -2.189209     3.473128     2.542645
 H    -2.869270     3.462643     3.399035
 C    -1.835727     4.697455     1.962138
 C    -2.414555     5.989471     2.461306
 H    -1.719942     6.828321     2.309403
 H    -2.657007     5.936278     3.532599
 H    -3.347302     6.237769     1.927362
 H    -1.288156     2.016002    -1.815256
 H    -1.771052     0.635793    -2.792073
 C    -3.355001     1.479491    -1.609428
 C    -3.685927     2.598064    -0.831738
 H    -2.887432     3.180354    -0.370099
 C    -4.394244     0.749309    -2.228557
 C    -4.119325    -0.433755    -3.107972
 H    -3.599771    -1.235545    -2.561758
 H    -3.491834    -0.161131    -3.972184
 H    -5.055260    -0.856320    -3.496434
 C    -5.007469     2.994332    -0.646925
 H    -5.228910     3.871918    -0.035030
 C    -5.716949     1.162415    -2.030272
 H    -6.518108     0.593124    -2.509172
 C    -6.032874     2.270151    -1.248844
 H    -7.076026     2.566088    -1.114490
 H    -1.789675    -0.974701     1.402891
 H    -2.901259     0.281882     0.837061
 C    -3.302304    -1.671477     0.049330
 C    -2.830417    -2.805070    -0.620860
 H    -1.760324    -2.887072    -0.809612
 C    -4.682220    -1.555417     0.321378
 C    -5.233377    -0.406714     1.115368
 H    -5.004043     0.564635     0.652798
 H    -4.814839    -0.389063     2.135486
 H    -6.325799    -0.480873     1.203583
 C    -3.698953    -3.798102    -1.065876
 H    -3.301641    -4.668421    -1.593490
 C    -5.541321    -2.558290    -0.141118
 H    -6.612474    -2.464937     0.058942
 C    -5.065671    -3.668009    -0.836565
 H    -5.762718    -4.433469    -1.186421
 C     0.805819    -1.877450     2.196803
 C    -0.001889    -3.008610     2.056987
 H     0.298133    -3.795870     1.365535
 C     0.437943    -0.873745     3.091788
 H     1.078295     0.001629     3.210958
 C    -1.179025    -3.114234     2.789154
 H    -1.813555    -3.993396     2.649444
 C    -0.741663    -0.997059     3.825502
 H    -1.019542    -0.202115     4.523282
 C    -1.578709    -2.108426     3.679868
 C    -2.877483    -2.219357     4.423623
 H    -2.917685    -3.138231     5.029452
 H    -3.727828    -2.258609     3.723380
 H    -3.032012    -1.364475     5.096969
 H     3.437244    -2.822235    -0.466309
 H     3.626829    -1.561612    -1.674025
 C     4.943435    -1.357418     0.028647
 C     5.203797    -1.700090     1.362127
 H     4.429608    -2.224674     1.927476
 C     5.924033    -0.666358    -0.713937
 C     5.694721    -0.261209    -2.142155
 H     4.814283     0.392789    -2.243492
 H     5.535255    -1.136257    -2.793232
 H     6.560376     0.289829    -2.533625
 C     6.416530    -1.379672     1.966119
 H     6.598262    -1.657660     3.006935
 C     7.140918    -0.362493    -0.091936
 H     7.905922     0.167412    -0.666021
 C     7.394291    -0.711736     1.231911
 H     8.353633    -0.458773     1.689547
 H     1.726919     1.070187     1.179756
 H     3.375813     0.442533     1.431639
 C     3.125679     1.642485    -0.349205
 C     2.404785     1.860884    -1.529965
 H     1.468811     1.317876    -1.671703
 C     4.313982     2.370057    -0.125751
 C     5.078996     2.247029     1.159193
 H     5.387736     1.210598     1.359464
 H     4.470035     2.579312     2.015736
 H     5.987454     2.863948     1.134260
 C     2.859147     2.740050    -2.510172
 H     2.280813     2.883037    -3.426281
 C     4.757294     3.247181    -1.122011
 H     5.682426     3.805556    -0.954438
 C     4.051504     3.429836    -2.309301
 H     4.428429     4.118699    -3.069001
