  92
scf done:    -4872.815583
 C    -2.166225     0.151945    -2.899391
 H    -2.024073    -0.283918    -3.895100
 H    -3.204389     0.011009    -2.569446
 C    -1.628966     1.531587    -2.726533
 H    -1.093263     1.932109    -3.597703
 H    -2.362581     2.264196    -2.360514
 H    -0.834611     1.599682    -1.863351
Co    -0.735833    -0.130407    -1.597976
 O    -3.472473     0.116180     0.279226
 C    -3.132999    -2.301118    -0.657904
 C    -1.616697    -1.395236     1.495830
 O     1.693729    -1.163939     0.147802
 C     2.406918     1.026722    -1.375739
 C     0.998633     1.310279     1.045931
 P     1.029894     0.261893    -0.448103
 P    -2.134855    -0.845224    -0.169970
 C     0.055934    -1.304746    -2.575266
 O     0.535218    -2.173592    -3.170797
 C    -3.456756     1.465033     0.164582
 C    -2.413171     2.242002     0.674864
 H    -1.574710     1.766081     1.185176
 C    -4.535503     2.083941    -0.474450
 H    -5.339057     1.457642    -0.866148
 C    -2.441372     3.626496     0.529545
 H    -1.625235     4.234465     0.921262
 C    -4.571264     3.467388    -0.612029
 H    -5.408661     3.956836    -1.111927
 C    -3.516061     4.233830    -0.115721
Cl    -3.545596     5.959772    -0.297582
 C    -4.207466    -2.716875     0.142063
 H    -4.453793    -2.159077     1.048452
 C    -2.832906    -3.024943    -1.810557
 H    -2.000838    -2.713172    -2.442320
 C    -4.959960    -3.827120    -0.213878
 H    -5.797349    -4.135201     0.419107
 C    -3.586670    -4.146898    -2.155954
 H    -3.332315    -4.705043    -3.061163
 C    -4.661438    -4.566040    -1.369429
 C    -5.478895    -5.769363    -1.736726
 H    -6.537745    -5.501510    -1.881310
 H    -5.118153    -6.234940    -2.664353
 H    -5.445542    -6.530186    -0.940564
 C    -2.115918    -0.828459     2.669789
 H    -2.878951    -0.049604     2.612308
 C    -0.647734    -2.403362     1.587598
 H    -0.238512    -2.848581     0.677916
 C    -1.639409    -1.248732     3.911590
 H    -2.035546    -0.788858     4.821492
 C    -0.177564    -2.815227     2.827960
 H     0.588030    -3.594647     2.879192
 C    -0.660469    -2.241182     4.014441
 C    -0.149959    -2.701058     5.348624
 H     0.949374    -2.757482     5.360474
 H    -0.467085    -2.027449     6.157189
 H    -0.525884    -3.709237     5.588665
 C     3.026446    -1.411503     0.291309
 C     3.646951    -1.248922     1.530452
 H     3.059988    -0.904268     2.382622
 C     3.761200    -1.859147    -0.808582
 H     3.252315    -1.988343    -1.765773
 C     5.007156    -1.515182     1.666166
 H     5.505928    -1.389140     2.628447
 C     5.119685    -2.122647    -0.677867
 H     5.705042    -2.465543    -1.532304
 C     5.738479    -1.942674     0.559362
Cl     7.435426    -2.259665     0.723775
 C     2.321271     1.133940    -2.765729
 H     1.410026     0.798004    -3.266167
 C     3.575538     1.472335    -0.737222
 H     3.661064     1.412579     0.349792
 C     3.380534     1.658890    -3.503402
 H     3.292640     1.736271    -4.590365
 C     4.630821     1.983927    -1.478434
 H     5.537841     2.313015    -0.963872
 C     4.554851     2.083565    -2.876210
 C     5.708348     2.630114    -3.663154
 H     6.600408     1.994318    -3.545245
 H     5.475284     2.690589    -4.735041
 H     5.984143     3.638213    -3.315943
 C     0.797979     0.765745     2.316797
 H     0.750952    -0.316915     2.444560
 C     1.039717     2.705520     0.909592
 H     1.196681     3.153629    -0.075320
 C     0.639764     1.598681     3.422835
 H     0.476540     1.148742     4.405749
 C     0.884156     3.527998     2.018739
 H     0.927898     4.613771     1.892430
 C     0.671934     2.990464     3.296547
 C     0.462403     3.888177     4.479577
 H     1.188315     4.715182     4.490993
 H    -0.542887     4.340350     4.453273
 H     0.553818     3.337451     5.426055
