  84
scf done:    -5016.471854
 C    -2.262612    -0.562659    -3.715088
 H    -2.132317    -1.329204    -4.486418
 H    -3.310871    -0.515458    -3.398748
 C    -1.608461     0.745593    -3.992565
 H    -1.069478     0.801461    -4.947536
 H    -2.272601     1.614639    -3.880297
 H    -0.762475     1.004660    -3.216398
Co    -0.883892    -0.497808    -2.333566
 O    -3.287813     0.874934    -0.553659
 O    -3.568179    -1.507659    -1.073506
 O    -1.972009    -0.719468     0.758968
 O     1.115190    -0.650912     0.132975
 O     2.233428    -0.116378    -2.111996
 O     0.948064     1.670923    -0.824320
 P     0.825067     0.098244    -1.287517
 P    -2.328375    -0.454087    -0.845925
 C    -0.254256    -2.042650    -2.795454
 O     0.085492    -3.123991    -3.001005
 C    -2.800903     1.984144     0.079925
 C    -3.107766     2.180306     1.427037
 H    -3.718540     1.435410     1.939350
 C    -2.018698     2.910526    -0.607979
 H    -1.780683     2.735728    -1.657195
 C    -2.626059     3.303941     2.090215
 H    -2.853194     3.469853     3.144486
 C    -1.525568     4.030135     0.055880
 H    -0.889300     4.748708    -0.462170
 C    -1.826240     4.217292     1.403076
Cl    -1.167808     5.578867     2.246796
 C    -4.660860    -1.610699    -0.239318
 C    -5.775102    -0.803331    -0.462837
 H    -5.745643    -0.069749    -1.269156
 C    -4.656015    -2.551730     0.787956
 H    -3.772542    -3.172661     0.944280
 C    -6.895143    -0.944384     0.352436
 H    -7.769926    -0.313296     0.178311
 C    -5.782215    -2.683372     1.598324
 H    -5.779791    -3.421539     2.403772
 C    -6.902903    -1.882234     1.385143
 H    -7.783502    -1.989251     2.022413
 C    -1.258863    -1.772059     1.257859
 C    -1.093305    -2.973184     0.564747
 H    -1.547462    -3.112233    -0.417508
 C    -0.693816    -1.604842     2.522634
 H    -0.838445    -0.655357     3.040537
 C    -0.335331    -3.993242     1.139367
 H    -0.198205    -4.926019     0.587187
 C     0.055427    -2.633162     3.084976
 H     0.506845    -2.491435     4.069701
 C     0.243721    -3.831449     2.395683
 H     0.843587    -4.631322     2.833990
 C     2.204925    -1.349303     0.569528
 C     2.897723    -0.875771     1.681605
 H     2.582369     0.058870     2.148110
 C     2.580242    -2.535231    -0.058189
 H     2.019303    -2.892310    -0.923108
 C     3.982246    -1.596191     2.171277
 H     4.537998    -1.241122     3.040359
 C     3.670563    -3.251498     0.425867
 H     3.982197    -4.179770    -0.055052
 C     4.365438    -2.779319     1.539150
Cl     5.720785    -3.673709     2.145546
 C     3.346555     0.690773    -2.077705
 C     4.458503     0.317275    -1.325586
 H     4.433446    -0.607551    -0.749156
 C     3.359149     1.859468    -2.838993
 H     2.476757     2.122835    -3.424362
 C     5.583081     1.140226    -1.320281
 H     6.453098     0.850907    -0.726430
 C     4.488674     2.674162    -2.825721
 H     4.497348     3.592764    -3.416997
 C     5.601622     2.321034    -2.061726
 H     6.485266     2.962717    -2.050698
 C     1.370495     2.128121     0.406839
 C     2.575025     2.819967     0.501828
 H     3.187975     2.960132    -0.389090
 C     0.566500     1.929096     1.528165
 H    -0.373613     1.385938     1.424668
 C     2.975986     3.317219     1.741413
 H     3.920453     3.860732     1.818502
 C     0.977262     2.432356     2.758787
 H     0.340765     2.288244     3.634938
 C     2.183052     3.125282     2.871649
 H     2.499444     3.522224     3.838605
