  86
scf done:    -3875.290489
 C    -0.160220    -3.528053    -0.833075
 H     0.490514    -4.336248    -0.478840
 H    -1.214293    -3.816338    -0.747116
 C     0.239460    -2.928109    -2.136391
 H     1.145929    -3.352560    -2.590574
 H    -0.569389    -2.887921    -2.880481
 H     0.511355    -1.788148    -2.045183
Co     0.337842    -1.717901    -0.303548
 O    -2.213302     0.191710    -1.075848
 C    -3.010964    -2.188144    -0.088856
 C    -1.971551    -0.180502     1.638016
 O     2.227894     0.503934     1.074060
 C     2.932214    -0.073288    -1.526982
 C     0.807149     1.689991    -0.853097
 P     1.505012     0.069502    -0.387159
 P    -1.643126    -0.975589     0.021270
 C     1.148584    -2.377927     1.046925
 O     1.592527    -2.833192     2.014339
 C    -3.175460     1.124188    -0.812006
 C    -2.834562     2.301301    -0.140815
 H    -1.805931     2.441994     0.192957
 C    -4.490845     0.929175    -1.231851
 H    -4.758585     0.007697    -1.749680
 C    -3.803659     3.264564     0.107866
 H    -3.519715     4.176792     0.640364
 C    -5.452943     1.905253    -0.974494
 H    -6.481895     1.738222    -1.305604
 C    -5.132459     3.087357    -0.300448
 C    -6.166622     4.143610    -0.036442
 H    -6.015417     5.022540    -0.685067
 H    -6.121124     4.499914     1.004291
 H    -7.182958     3.767745    -0.221497
 C    -3.352797    -2.994948     1.002975
 C    -3.594998    -2.447816    -1.334502
 C    -4.877060    -4.260040    -0.382652
 C    -4.527447    -3.473226    -1.479311
 C    -4.283873    -4.020969     0.856818
 H    -2.885892    -2.818824     1.975462
 H    -4.547764    -4.639123     1.718410
 H    -5.607621    -5.064673    -0.495004
 H    -4.981374    -3.661058    -2.455573
 H    -3.310530    -1.836508    -2.194734
 C    -3.274649     0.067128     2.095351
 C    -0.886118     0.253024     2.407079
 C    -2.394796     1.182894     4.047253
 C    -1.097239     0.934277     3.604683
 C    -3.483477     0.744744     3.292465
 H    -4.132077    -0.263708     1.505608
 H    -4.503017     0.937326     3.634565
 H    -2.560419     1.716289     4.986771
 H    -0.239524     1.266153     4.194431
 H     0.133389     0.055089     2.071141
 C     3.579150     0.513419     1.302896
 C     4.367979     1.577457     0.866200
 H     3.906328     2.400675     0.318423
 C     4.158810    -0.539656     2.008488
 H     3.527867    -1.363153     2.346702
 C     5.734718     1.576382     1.128614
 H     6.344412     2.414570     0.779728
 C     5.526910    -0.523027     2.265874
 H     5.972251    -1.352655     2.822185
 C     6.342183     0.526737     1.827051
 C     7.823634     0.512776     2.070821
 H     8.355523     0.007001     1.247246
 H     8.075152    -0.022544     2.997999
 H     8.230804     1.531813     2.144172
 C     3.584614    -1.311872    -1.582127
 C     3.410381     0.989485    -2.302462
 C     5.180111    -0.416573    -3.155211
 C     4.526880     0.814735    -3.116540
 C     4.708922    -1.479620    -2.385632
 H     3.196662    -2.140465    -0.983529
 H     5.217222    -2.446250    -2.413854
 H     6.059078    -0.548889    -3.790900
 H     4.892086     1.647931    -3.721738
 H     2.906759     1.958029    -2.269528
 C     0.098479     1.780438    -2.057445
 C     0.951488     2.825448    -0.050847
 C    -0.262959     4.137284    -1.677852
 C     0.416822     4.046509    -0.465272
 C    -0.424886     3.000592    -2.471762
 H    -0.055712     0.885471    -2.665096
 H    -0.978876     3.062608    -3.410928
 H    -0.685123     5.092163    -1.999471
 H     0.531113     4.930044     0.167410
 H     1.480419     2.744027     0.900462
