 110
scf done:    -3889.784756
 C    -0.919330    -1.209727     3.227723
 H    -0.535750    -0.865313     4.195402
 H    -1.997033    -1.400329     3.294285
 C    -0.121546    -2.288639     2.587750
 H     0.753742    -2.628445     3.157868
 H    -0.710447    -3.154924     2.252043
 H     0.338526    -1.954660     1.557801
Co    -0.188053    -0.293607     1.663520
 O    -2.160002    -2.135611    -0.246687
 C    -3.550275    -0.577938     1.268963
 C    -2.171222     0.477426    -1.166823
 O     1.388454     0.765947    -1.098328
 C     2.743321     1.375397     1.189094
 C     2.527300    -1.375012    -0.016871
 P     1.556210     0.133743     0.474390
 P    -1.930838    -0.556335     0.365425
 C    -0.123465     1.158134     2.538742
 O    -0.148445     2.178749     3.091282
 C    -1.218788    -2.859311    -0.891080
 C    -1.205203    -4.242071    -0.668806
 H    -1.922543    -4.659271     0.040965
 C    -0.305034    -2.310093    -1.794973
 H    -0.269991    -1.233601    -1.964577
 C    -0.309726    -5.054846    -1.351726
 H    -0.319457    -6.132529    -1.164171
 C     0.574261    -3.144059    -2.485550
 H     1.264618    -2.695052    -3.204598
 C     0.597427    -4.525225    -2.281058
 C     1.567657    -5.412034    -3.006853
 H     1.068596    -6.298908    -3.426927
 H     2.360021    -5.776758    -2.331697
 H     2.058995    -4.878272    -3.832648
 H    -3.387594    -1.468150     1.906314
 C    -4.815348    -0.855476     0.458464
 H    -4.659135    -1.722537    -0.200095
 H    -5.039978     0.008771    -0.189270
 C    -6.003204    -1.091836     1.388075
 H    -6.916369    -1.268178     0.796215
 H    -5.827216    -2.014960     1.969831
 C    -6.206007     0.076602     2.346549
 H    -7.044205    -0.128451     3.032376
 H    -6.492742     0.972827     1.766266
 C    -4.934876     0.378878     3.132942
 H    -4.709243    -0.471698     3.801875
 H    -5.083562     1.254386     3.785525
 C    -3.742409     0.612450     2.210435
 H    -3.913870     1.530195     1.624442
 H    -2.826711     0.782642     2.794666
 H    -1.133661     0.633701    -1.511842
 C    -2.733895     1.867016    -0.853125
 H    -2.169325     2.338742    -0.033881
 H    -3.776113     1.769646    -0.505697
 C    -2.706499     2.753525    -2.094563
 H    -3.133485     3.741894    -1.857603
 H    -1.658255     2.930150    -2.384805
 C    -3.448105     2.112434    -3.260748
 H    -3.377027     2.751503    -4.156013
 H    -4.523827     2.035733    -3.017350
 C    -2.903890     0.719411    -3.554532
 H    -1.857489     0.803781    -3.900484
 H    -3.467779     0.247789    -4.375897
 C    -2.949337    -0.169902    -2.315639
 H    -3.997992    -0.322110    -2.018421
 H    -2.549994    -1.166992    -2.548212
 C     1.059163     2.039518    -1.427120
 C     1.307520     2.428346    -2.748637
 H     1.743217     1.697563    -3.432841
 C     0.494911     2.964515    -0.543639
 H     0.248696     2.679272     0.478639
 C     1.016526     3.721802    -3.166142
 H     1.222969     4.004014    -4.202484
 C     0.223218     4.261163    -0.976943
 H    -0.213449     4.968124    -0.266096
 C     0.474581     4.670389    -2.288834
 C     0.131163     6.055156    -2.754894
 H     0.836432     6.411226    -3.520349
 H     0.140229     6.774115    -1.923022
 H    -0.877200     6.084306    -3.201661
 H     2.099777     2.270886     1.249379
 C     3.951504     1.764687     0.339355
 H     3.656552     1.952335    -0.703988
 H     4.674680     0.931302     0.323132
 C     4.625790     3.000772     0.930148
 H     5.510477     3.272232     0.331310
 H     3.926793     3.853236     0.856787
 C     5.016581     2.786431     2.388954
 H     5.451710     3.708070     2.808531
 H     5.811172     2.019311     2.438428
 C     3.831352     2.325247     3.231817
 H     3.081388     3.133610     3.296930
 H     4.153890     2.116994     4.264892
 C     3.168773     1.088714     2.632590
 H     3.885041     0.252213     2.655838
 H     2.302331     0.776765     3.234090
 H     1.724577    -2.093399    -0.259768
 C     3.314958    -1.954574     1.161122
 H     2.689511    -2.008749     2.065096
 H     4.156525    -1.284247     1.401856
 C     3.875636    -3.327640     0.807316
 H     4.434589    -3.739115     1.663419
 H     3.038657    -4.022405     0.612388
 C     4.768244    -3.245089    -0.425389
 H     5.148134    -4.243832    -0.695850
 H     5.654993    -2.629889    -0.186287
 C     4.023223    -2.626187    -1.602129
 H     3.214568    -3.310542    -1.907080
 H     4.692699    -2.524833    -2.472105
 C     3.416214    -1.267507    -1.257308
 H     4.224831    -0.541119    -1.079672
 H     2.832337    -0.879586    -2.103571
