  96
scf done:    -4453.057070
 C     1.649745     1.097836     3.509169
 H     1.574955     0.663077     4.512262
 H     2.696816     1.254781     3.237042
 C     0.722524     2.229563     3.235922
 H     0.076112     2.511325     4.078119
 H     1.201427     3.122931     2.810584
 H    -0.066125     1.979310     2.402688
Co     0.488781     0.340626     2.142516
 O     2.658314     1.242775    -0.356761
 O     3.379252    -0.493821     1.212152
 O     1.439972    -0.999073    -0.436096
 O    -1.700444    -1.523337     0.756569
 O    -2.595105     0.706571     1.674533
 O    -1.305288     0.629934    -0.528257
 P    -1.246483     0.038497     1.001849
 P     1.956033     0.120577     0.675714
 C     0.317686    -1.085553     3.089897
 O     0.309412    -2.074733     3.679698
 C     1.930854     2.210214    -0.992584
 C     2.168763     3.548186    -0.671609
 H     2.913339     3.787827     0.089343
 C     0.994434     1.883624    -1.976737
 H     0.797253     0.837024    -2.206679
 C     1.466578     4.558853    -1.323202
 H     1.632137     5.611264    -1.085984
 C     0.289398     2.890688    -2.629300
 H    -0.463776     2.657107    -3.383456
 C     0.529602     4.215890    -2.290251
 F    -0.167221     5.180434    -2.893067
 C     4.659736    -0.402538     0.699458
 C     5.179135    -1.484889    -0.005727
 H     4.552603    -2.360403    -0.172594
 C     5.445864     0.726259     0.980791
 C     4.940040     1.847224     1.834831
 H     3.962111     2.208653     1.490044
 H     4.821143     1.520105     2.880181
 H     5.643063     2.691234     1.826038
 C     6.483884    -1.442399    -0.488704
 H     6.877435    -2.294432    -1.047375
 C     6.749871     0.745225     0.475067
 H     7.372616     1.621228     0.676247
 C     7.270725    -0.317462    -0.259248
 H     8.293398    -0.269144    -0.639862
 C     2.179510    -1.882078    -1.179940
 C     2.828272    -1.465987    -2.339328
 H     2.798860    -0.412517    -2.619810
 C     2.200783    -3.218347    -0.750739
 C     1.524445    -3.604245     0.528062
 H     2.058066    -3.178540     1.393467
 H     0.498051    -3.212432     0.578375
 H     1.494854    -4.695284     0.648028
 C     3.532114    -2.397113    -3.099174
 H     4.054114    -2.074954    -4.002759
 C     2.907597    -4.131724    -1.539062
 H     2.941163    -5.179117    -1.227405
 C     3.570676    -3.731484    -2.699349
 H     4.118687    -4.466705    -3.292853
 C    -2.251471    -2.061552    -0.385844
 C    -1.438923    -2.307383    -1.492232
 H    -0.387442    -2.027482    -1.452322
 C    -3.603118    -2.399566    -0.406045
 H    -4.223914    -2.204926     0.469021
 C    -1.983760    -2.884140    -2.635890
 H    -1.368953    -3.085531    -3.514739
 C    -4.150373    -2.975780    -1.549713
 H    -5.206531    -3.246453    -1.594979
 C    -3.335745    -3.208621    -2.651526
 F    -3.861539    -3.758191    -3.745864
 C    -3.872131     0.187448     1.726443
 C    -4.834136     0.656175     0.834846
 H    -4.555991     1.408771     0.096972
 C    -4.178419    -0.758718     2.716583
 C    -3.136290    -1.230499     3.681215
 H    -2.466745    -1.967724     3.211354
 H    -2.501664    -0.398220     4.018736
 H    -3.596843    -1.703590     4.558863
 C    -6.129172     0.148338     0.890702
 H    -6.880306     0.509322     0.184833
 C    -5.488775    -1.249847     2.747865
 H    -5.750292    -1.991365     3.507534
 C    -6.455983    -0.814623     1.843485
 H    -7.469079    -1.220012     1.892780
 C    -2.252156     1.399260    -1.158628
 C    -2.997759     0.823128    -2.184597
 H    -2.852337    -0.232672    -2.413895
 C    -2.381982     2.754943    -0.820266
 C    -1.561798     3.365615     0.271922
 H    -2.013876     3.166191     1.256903
 H    -0.545697     2.945061     0.283434
 H    -1.484749     4.453179     0.141556
 C    -3.915860     1.598278    -2.887591
 H    -4.503955     1.145117    -3.688641
 C    -3.312623     3.507969    -1.544672
 H    -3.424864     4.568599    -1.305451
 C    -4.077232     2.944551    -2.564128
 H    -4.792664     3.561362    -3.112342
