 102
scf done:    -4333.101084
 C    -0.457389     1.460554     2.982963
 H    -1.550011     1.563026     3.013743
 H    -0.086654     1.171626     3.974127
 C     0.278868     2.584227     2.339277
 H    -0.351729     3.408893     1.975928
 H     1.116473     2.987217     2.924504
 H     0.794195     2.273917     1.334253
Co     0.382012     0.574337     1.456902
 O     2.136400     1.540934    -1.168354
 C     3.598072     0.140427     0.588397
 C     1.812821    -1.071495    -1.233153
 O    -1.438502    -0.753894    -0.966162
 C    -2.793249    -0.606027     1.361015
 C    -2.453642     1.567948    -0.343651
 P    -1.460708     0.228878     0.416309
 P     1.896227     0.299437    -0.049961
 C     0.913189    -0.736634     2.420028
 O     1.138207    -1.690123     3.040972
 C     1.587408     2.784644    -1.027582
 C     0.314485     3.019349    -1.540988
 H    -0.213918     2.196300    -2.021845
 C     2.319929     3.805983    -0.400687
 C     3.692483     3.549058     0.141258
 H     4.262842     2.878666    -0.517143
 H     4.247660     4.489138     0.265701
 H     3.651177     3.052725     1.124073
 C    -0.269715     4.276031    -1.420102
 H    -1.275242     4.443067    -1.810327
 C     1.713688     5.063009    -0.297351
 H     2.268774     5.872848     0.184578
 C     0.431800     5.301638    -0.789684
 H    -0.016756     6.292274    -0.686075
 C     3.886010     0.441375     1.925951
 H     3.060102     0.700244     2.593758
 C     4.655478    -0.181036    -0.267360
 H     4.449720    -0.415776    -1.315000
 C     5.188561     0.415600     2.397875
 H     5.423685     0.642635     3.439294
 C     5.969811    -0.208648     0.190655
 H     6.771524    -0.466665    -0.501634
 C     6.243303     0.090932     1.532915
 O     7.475445     0.088703     2.072095
 C     8.572335    -0.227457     1.260468
 H     8.683818     0.485660     0.424850
 H     9.462845    -0.167708     1.898762
 H     8.496922    -1.248920     0.848094
 C     1.466941    -0.864610    -2.574317
 H     1.307591     0.152538    -2.935968
 C     2.033865    -2.375695    -0.786844
 H     2.300800    -2.557531     0.258019
 C     1.336691    -1.938877    -3.439799
 H     1.064148    -1.796387    -4.487164
 C     1.907772    -3.461470    -1.648398
 H     2.065841    -4.467829    -1.262886
 C     1.538777    -3.247779    -2.980731
 O     1.356797    -4.228937    -3.884454
 C     1.543042    -5.557577    -3.481334
 H     0.855905    -5.831944    -2.663131
 H     1.328037    -6.184253    -4.356297
 H     2.581947    -5.744400    -3.156184
 C    -1.385862    -2.110881    -0.974273
 C    -0.987968    -2.873538     0.125566
 H    -0.669213    -2.382699     1.043474
 C    -1.761544    -2.733995    -2.179148
 C    -2.197950    -1.900904    -3.343225
 H    -3.134958    -1.365754    -3.116821
 H    -1.442938    -1.137884    -3.585880
 H    -2.364118    -2.522369    -4.233668
 C    -0.984970    -4.263528     0.044575
 H    -0.679996    -4.846291     0.916940
 C    -1.733302    -4.127943    -2.237138
 H    -2.020945    -4.616348    -3.172306
 C    -1.358873    -4.898354    -1.136023
 H    -1.367787    -5.989136    -1.200396
 C    -4.046030    -0.831479     0.766599
 H    -4.241396    -0.457152    -0.241543
 C    -2.572335    -1.093547     2.647656
 H    -1.599171    -0.940436     3.117238
 C    -5.037954    -1.522500     1.438657
 H    -6.013604    -1.706710     0.985147
 C    -3.564408    -1.785084     3.341804
 H    -3.353724    -2.151279     4.346652
 C    -4.805796    -2.005842     2.736459
 O    -5.827227    -2.663585     3.315217
 C    -5.653640    -3.181168     4.604638
 H    -5.442863    -2.386088     5.341438
 H    -6.595684    -3.674721     4.875115
 H    -4.837515    -3.924004     4.641901
 C    -2.884029     2.621484     0.479225
 H    -2.650133     2.611968     1.546486
 C    -2.785780     1.610108    -1.696939
 H    -2.462196     0.798300    -2.349559
 C    -3.623948     3.673351    -0.033654
 H    -3.966336     4.491501     0.602522
 C    -3.524592     2.669314    -2.229918
 H    -3.762985     2.667283    -3.293906
 C    -3.949375     3.709625    -1.397904
 O    -4.658520     4.778345    -1.813172
 C    -5.013734     4.867021    -3.164016
 H    -5.651635     4.021878    -3.478051
 H    -5.579233     5.800178    -3.280841
 H    -4.126639     4.903385    -3.821257
