  90
scf done:    -6013.984108
 C     0.084034    -3.245072    -1.563872
 H    -0.089627    -3.707691    -2.541241
 H     1.028530    -3.605834    -1.138611
 C    -1.078706    -3.245267    -0.632179
 H    -1.994205    -3.697486    -1.037098
 H    -0.862382    -3.648171     0.367422
 H    -1.426527    -2.160370    -0.348503
Co    -0.327813    -1.338149    -1.433404
 O     2.063388    -1.989156     0.697521
 O     2.765562    -1.367043    -1.584860
 O     1.895296     0.472235     0.014564
 O    -0.554043     1.846480    -1.427616
 O    -2.771372     0.811741    -1.631234
 O    -1.580052     0.756701     0.626163
 P    -1.287369     0.465018    -0.985091
 P     1.524270    -1.028384    -0.568813
 C    -0.400866    -1.189536    -3.162097
 O    -0.316290    -1.088372    -4.303577
 C     1.227522    -2.381861     1.706729
 C     0.252091    -1.531408     2.229347
 H     0.132526    -0.521215     1.834698
 C     1.401585    -3.687333     2.195751
 C     2.463025    -4.569872     1.615556
 H     2.338084    -4.682106     0.527263
 H     3.466331    -4.142798     1.771632
 H     2.440063    -5.568037     2.072740
 C    -0.586260    -1.989079     3.246110
 H    -1.350744    -1.321940     3.650729
 C     0.551665    -4.113608     3.218984
 H     0.670845    -5.127634     3.610135
 C    -0.440054    -3.281892     3.740781
 H    -1.091816    -3.644236     4.538633
 C     4.098430    -1.064027    -1.479000
 C     4.868980    -1.455391    -0.383408
 H     4.407326    -2.027631     0.420258
 C     4.674186    -0.349652    -2.528356
 H     4.052291    -0.077529    -3.383074
 C     6.200669    -1.062523    -0.305533
 H     6.805764    -1.325187     0.563330
 C     6.010454     0.030400    -2.459434
 H     6.469313     0.604529    -3.265868
 C     6.762047    -0.309014    -1.335602
Cl     8.405601     0.223557    -1.209535
 C     3.041399     0.885941     0.648913
 C     3.914463     1.730525    -0.035521
 H     3.671937     2.027885    -1.056491
 C     3.311889     0.504065     1.961451
 H     2.606932    -0.127673     2.502529
 C     5.098250     2.140636     0.564811
 H     5.808119     2.769809     0.026263
 C     4.495396     0.917074     2.567583
 H     4.729853     0.612935     3.588826
 C     5.391089     1.717325     1.861417
Cl     6.886401     2.187830     2.597662
 C    -1.071459     3.105867    -1.169572
 C    -2.065898     3.616664    -2.000369
 H    -2.422469     3.005952    -2.829420
 C    -0.552897     3.842289    -0.094432
 C     0.547549     3.301424     0.761935
 H     0.298078     2.306178     1.153484
 H     1.474166     3.183719     0.181060
 H     0.754700     3.974862     1.604077
 C    -2.590964     4.881703    -1.750648
 H    -3.373394     5.281378    -2.399596
 C    -1.101418     5.110985     0.130989
 H    -0.716392     5.703008     0.965537
 C    -2.112664     5.628427    -0.675859
 H    -2.519614     6.620921    -0.469786
 C    -3.913270     0.058993    -1.541676
 C    -5.088960     0.718981    -1.185384
 H    -5.054962     1.791560    -0.992008
 C    -3.926675    -1.307525    -1.815980
 H    -3.006405    -1.797309    -2.134810
 C    -6.269902     0.002464    -1.038805
 H    -7.187587     0.503002    -0.726419
 C    -5.109245    -2.028169    -1.668150
 H    -5.133128    -3.100406    -1.869518
 C    -6.271712    -1.374457    -1.264819
Cl    -7.734461    -2.277295    -1.048388
 C    -2.815842     0.867042     1.211989
 C    -3.477790    -0.287531     1.630300
 H    -2.999804    -1.258975     1.491410
 C    -3.394073     2.122001     1.386672
 H    -2.857079     3.012115     1.053243
 C    -4.749051    -0.194165     2.185191
 H    -5.293164    -1.089808     2.487686
 C    -4.662721     2.218894     1.951659
 H    -5.138286     3.192144     2.082613
 C    -5.340248     1.060565     2.330394
Cl    -6.946015     1.178411     2.968878
