 118
scf done:    -4790.760156
 C    -0.614421    -1.935816    -2.367383
 H     0.302879    -2.455058    -2.666301
 H    -1.496500    -2.584065    -2.462221
 C    -0.776843    -0.571744    -2.921255
 H     0.069519    -0.232889    -3.536559
 H    -1.735478    -0.395190    -3.430864
 H    -0.807471     0.271411    -2.092651
Co    -0.546094    -0.847065    -0.758790
 O    -2.820716     1.554017     0.323735
 C    -3.580901    -0.622223    -1.073155
 C    -2.913364    -0.639202     1.791042
 O     2.068830    -0.954883     0.980829
 C     2.765758    -0.488283    -1.612694
 C     1.705067     1.665740     0.159342
 P     1.479911    -0.099487    -0.331111
 P    -2.323495    -0.065114     0.146602
 C    -0.497899    -2.276551     0.142193
 O    -0.416733    -3.270141     0.732412
 C    -1.910063     2.531224     0.549392
 C    -1.532928     3.383427    -0.418697
 H    -1.956133     3.257987    -1.415319
 C    -1.414063     2.663490     1.923381
 H    -1.775166     1.933892     2.650132
 C    -0.480964     4.408570    -0.164029
 H    -0.719759     5.349768    -0.687404
 C    -0.588640     3.653235     2.281608
 H    -0.261161     3.745923     3.321762
 C    -0.083563     4.689129     1.321043
 C    -0.422734     6.081951     1.824949
 H    -0.029587     6.854217     1.143694
 H     0.010751     6.257403     2.823261
 H    -1.513405     6.213937     1.901444
 C    -3.974372    -1.976371    -1.048937
 O    -3.488279    -2.695483    -0.022505
 C    -3.642583    -4.083464     0.011477
 H    -3.043746    -4.435473     0.860423
 H    -4.697037    -4.376545     0.160408
 H    -3.264564    -4.555230    -0.912024
 C    -3.985087     0.150544    -2.176940
 O    -3.478830     1.400001    -2.279830
 C    -3.855186     2.204745    -3.354877
 H    -3.342635     3.166911    -3.219795
 H    -4.943647     2.389124    -3.375198
 H    -3.550880     1.772550    -4.325721
 C    -4.840124    -0.382946    -3.154474
 H    -5.170000     0.227349    -3.993909
 C    -4.815389    -2.518476    -2.024051
 H    -5.124317    -3.562061    -1.973355
 C    -5.254594    -1.705675    -3.064103
 H    -5.918237    -2.115888    -3.828840
 C    -4.278785    -0.786146     2.106976
 O    -5.154011    -0.448111     1.147200
 C    -6.514642    -0.713408     1.309306
 H    -6.998121    -0.429401     0.365683
 H    -6.703619    -1.784747     1.499474
 H    -6.956056    -0.122258     2.131208
 C    -1.971105    -0.862287     2.814518
 O    -0.693217    -0.568275     2.530414
 C     0.299454    -0.733294     3.506797
 H     1.231071    -0.390548     3.044986
 H     0.407252    -1.792964     3.794744
 H     0.079707    -0.133111     4.407393
 C    -2.372223    -1.334759     4.073556
 H    -1.636605    -1.532116     4.851437
 C    -4.685194    -1.258911     3.360786
 H    -5.741462    -1.392422     3.590998
 C    -3.722337    -1.538700     4.324269
 H    -4.035675    -1.908435     5.303857
 C     3.313669    -1.435638     1.200341
 C     4.487519    -0.764747     0.850402
 H     4.432214     0.211878     0.371034
 C     3.396953    -2.676036     1.839878
 H     2.464169    -3.186548     2.088727
 C     5.722335    -1.344692     1.134672
 H     6.633636    -0.808641     0.853348
 C     4.637496    -3.234449     2.125712
 H     4.682869    -4.204893     2.629195
 C     5.827720    -2.584420     1.773100
 C     7.164569    -3.212432     2.046616
 H     7.970255    -2.463809     2.039200
 H     7.416035    -3.970603     1.285375
 H     7.182117    -3.718776     3.023834
 C     3.567183     0.412472    -2.344258
 O     3.609029     1.691051    -1.918493
 C     4.449343     2.611174    -2.546310
 H     4.336355     3.555411    -1.996783
 H     5.507921     2.299358    -2.505401
 H     4.172482     2.776906    -3.603129
 C     2.862874    -1.858022    -1.955913
 O     2.199942    -2.697998    -1.150358
 C     2.223364    -4.078112    -1.371337
 H     1.569424    -4.515766    -0.607457
 H     3.243243    -4.484932    -1.261110
 H     1.830621    -4.337838    -2.370054
 C     3.633836    -2.298494    -3.037362
 H     3.688683    -3.357502    -3.285407
 C     4.329614    -0.019074    -3.438865
 H     4.928745     0.688314    -4.010466
 C     4.344619    -1.365889    -3.780861
 H     4.944610    -1.697607    -4.631635
 C     1.194257     2.553435    -0.726908
 O     0.770674     2.057224    -1.908026
 C     0.567642     2.886598    -3.016483
 H     0.165748     2.245109    -3.811297
 H    -0.155814     3.693358    -2.816969
 H     1.515128     3.330279    -3.366788
 C     2.262860     2.189912     1.419900
 O     2.883184     1.256741     2.167516
 C     3.525585     1.640035     3.344249
 H     3.977006     0.730652     3.761992
 H     2.815270     2.069310     4.073745
 H     4.320441     2.382056     3.149365
 C     2.205420     3.496773     1.757393
 H     2.668705     3.853341     2.676869
 C     1.010142     4.005884    -0.471870
 H     1.459417     4.591126    -1.291068
 C     1.425272     4.469124     0.944437
 H     1.942810     5.441159     0.906502
