 102
scf done:    -4333.246494
 C    -0.061897    -3.514183    -0.166644
 H    -0.270029    -4.267643    -0.933903
 H     0.922258    -3.694016     0.283676
 C    -1.170256    -3.249582     0.793325
 H    -2.093941    -3.809476     0.597696
 H    -0.882091    -3.323680     1.851973
 H    -1.537009    -2.133658     0.761394
Co    -0.545384    -1.674489    -0.605833
 O     2.087876    -1.499544     1.315329
 O     2.507847    -1.681470    -1.111408
 O     1.687532     0.572410    -0.145456
 O    -1.541722     0.975237    -2.021406
 O    -3.238022     0.003189    -0.356943
 O    -1.324258     1.292370     0.484648
 P    -1.607758     0.116995    -0.623252
 P     1.359429    -1.047153    -0.131137
 C    -0.829640    -2.095109    -2.264021
 O    -0.910483    -2.370136    -3.377803
 C     1.384024    -1.547354     2.484178
 C     0.445959    -0.569818     2.822451
 H     0.249972     0.259734     2.139444
 C     1.663129    -2.623920     3.343345
 C     2.679071    -3.651018     2.949400
 H     2.419324    -4.120679     1.987797
 H     3.673510    -3.197244     2.814183
 H     2.759739    -4.438837     3.710392
 C    -0.235677    -0.663701     4.036310
 H    -0.960084     0.108763     4.303447
 C     0.964457    -2.689195     4.550766
 H     1.169126    -3.521242     5.230153
 C     0.019384    -1.724242     4.900880
 H    -0.510084    -1.798987     5.853240
 C     3.829352    -1.341456    -1.266166
 C     4.728078    -1.321312    -0.199798
 H     4.380036    -1.579584     0.799393
 C     4.263134    -1.033760    -2.553140
 H     3.545451    -1.080907    -3.374380
 C     6.041843    -0.926204    -0.426014
 H     6.733727    -0.885953     0.419908
 C     5.585782    -0.653538    -2.762514
 H     5.915256    -0.403204    -3.774838
 C     6.494822    -0.571815    -1.702544
 C     7.899734    -0.087609    -1.914305
 H     7.989691     0.981305    -1.655498
 H     8.213523    -0.198666    -2.962167
 H     8.616441    -0.634902    -1.283888
 C     2.865093     1.216449     0.162057
 C     3.599683     1.795668    -0.870630
 H     3.236549     1.705844    -1.894902
 C     3.298587     1.330502     1.479993
 H     2.702483     0.906226     2.288327
 C     4.799228     2.435687    -0.586074
 H     5.379720     2.866338    -1.406586
 C     4.503511     1.976786     1.747692
 H     4.845049     2.052223     2.783780
 C     5.283863     2.524819     0.725116
 C     6.612910     3.160396     1.013098
 H     6.792866     4.033303     0.367945
 H     7.436240     2.448162     0.833419
 H     6.686779     3.488808     2.059740
 C    -2.007085     2.268241    -2.146393
 C    -3.374193     2.522061    -2.213375
 H    -4.077273     1.691685    -2.143527
 C    -1.055852     3.295705    -2.223265
 C     0.401408     2.974695    -2.128288
 H     0.631948     2.488235    -1.169277
 H     0.699150     2.262035    -2.913295
 H     1.015485     3.880276    -2.221464
 C    -3.821037     3.834767    -2.348405
 H    -4.893010     4.038851    -2.393136
 C    -1.533398     4.602155    -2.366358
 H    -0.810715     5.420288    -2.428135
 C    -2.899752     4.876646    -2.423629
 H    -3.243578     5.907961    -2.530584
 C    -3.972422    -1.081746    -0.762098
 C    -4.657648    -1.814178     0.202649
 H    -4.583281    -1.510956     1.248656
 C    -4.052939    -1.441653    -2.107118
 H    -3.506286    -0.866547    -2.856917
 C    -5.419896    -2.914306    -0.182792
 H    -5.954122    -3.487121     0.580239
 C    -4.811709    -2.548424    -2.473654
 H    -4.855547    -2.833671    -3.528203
 C    -5.509067    -3.305231    -1.523648
 C    -6.343119    -4.482295    -1.939227
 H    -7.303890    -4.155576    -2.370783
 H    -6.571032    -5.136449    -1.085725
 H    -5.833006    -5.086014    -2.704720
 C    -2.220434     1.930420     1.312316
 C    -2.828328     1.238754     2.357395
 H    -2.629338     0.173215     2.482924
 C    -2.466885     3.287028     1.128861
 H    -1.994832     3.809874     0.295649
 C    -3.685188     1.914984     3.220769
 H    -4.164186     1.364456     4.035392
 C    -3.324237     3.948458     2.003809
 H    -3.517354     5.013679     1.849906
 C    -3.947830     3.281191     3.064382
 C    -4.847299     4.012793     4.018254
 H    -5.388067     4.828558     3.516458
 H    -4.269241     4.463729     4.842447
 H    -5.589762     3.339273     4.470306
