  96
scf done:    -4453.049806
 C    -0.779478    -2.179040    -3.165713
 H    -1.871339    -2.234721    -3.081315
 H    -0.486920    -1.959213    -4.198098
 C    -0.015516    -3.265143    -2.499296
 H    -0.646522    -4.040497    -2.041801
 H     0.783275    -3.715380    -3.101967
 H     0.553367    -2.892357    -1.535786
Co     0.205451    -1.199852    -1.791052
 O     2.030039    -1.406464     0.962824
 O     3.226735    -1.576234    -1.191396
 O     2.302178     0.726189    -0.430948
 O    -2.769866    -0.260870    -1.740734
 O    -2.346210    -2.228687    -0.203636
 O    -1.858145     0.052165     0.604594
 P    -1.582521    -0.868197    -0.745565
 P     1.888638    -0.854078    -0.598545
 C     0.590865     0.031695    -2.929976
 O     0.738327     0.911608    -3.659812
 C     0.978180    -1.282338     1.840442
 C     0.142265    -2.377822     2.048499
 H     0.323284    -3.300122     1.494897
 C     0.766042    -0.084118     2.520671
 H     1.416736     0.770882     2.333086
 C    -0.919693    -2.275904     2.939497
 H    -1.600884    -3.111003     3.109273
 C    -0.299390     0.023867     3.409249
 H    -0.510505     0.958479     3.930636
 C    -1.131456    -1.070911     3.597121
 F    -2.187103    -0.955796     4.408055
 C     4.508086    -1.605825    -0.676982
 C     4.813045    -2.338068     0.465837
 H     4.025036    -2.891156     0.975955
 C     5.504633    -0.910808    -1.357977
 H     5.243052    -0.357350    -2.260826
 C     6.117967    -2.320164     0.954810
 H     6.352341    -2.885923     1.860782
 C     6.799331    -0.902833    -0.854965
 H     7.571622    -0.337163    -1.383426
 C     7.129081    -1.593547     0.318620
 C     8.518528    -1.529122     0.883136
 H     8.701208    -2.340026     1.602401
 H     8.684814    -0.575519     1.412344
 H     9.280255    -1.597223     0.091940
 C     3.514630     1.279904    -0.087082
 C     4.071273     2.195105    -0.974729
 H     3.530571     2.430211    -1.893706
 C     4.166051     0.963856     1.104389
 H     3.726768     0.242369     1.792662
 C     5.308244     2.765397    -0.685550
 H     5.746008     3.476559    -1.391406
 C     5.405451     1.535031     1.370100
 H     5.924115     1.263350     2.293447
 C     6.005979     2.434817     0.480946
 C     7.370369     2.994201     0.760343
 H     7.570598     3.893452     0.160772
 H     8.153161     2.255217     0.519003
 H     7.490169     3.257970     1.821826
 C    -3.496518     0.887053    -1.556287
 C    -2.988848     2.092883    -2.042982
 H    -2.025987     2.094050    -2.557213
 C    -4.729218     0.850907    -0.906775
 H    -5.121081    -0.099335    -0.544118
 C    -3.691836     3.275369    -1.841680
 H    -3.305534     4.233685    -2.192259
 C    -5.439712     2.032741    -0.709883
 H    -6.402200     2.035390    -0.195290
 C    -4.906167     3.230709    -1.166772
 F    -5.576692     4.365745    -0.957567
 C    -3.678083    -2.284695     0.128849
 C    -4.584409    -2.781706    -0.805842
 H    -4.216458    -3.097129    -1.783758
 C    -4.124654    -1.857797     1.378459
 H    -3.412052    -1.458128     2.097665
 C    -5.938296    -2.843578    -0.489817
 H    -6.643160    -3.224657    -1.233878
 C    -5.483123    -1.926665     1.678932
 H    -5.826112    -1.582441     2.658553
 C    -6.415174    -2.415868     0.756030
 C    -7.873865    -2.507459     1.098811
 H    -8.506927    -2.349550     0.213412
 H    -8.156912    -1.764631     1.858407
 H    -8.123350    -3.502173     1.504823
 C    -1.649545     1.398513     0.753124
 C    -2.571421     2.098645     1.530632
 H    -3.416089     1.557942     1.960234
 C    -0.562667     2.061727     0.192101
 H     0.169508     1.516142    -0.400217
 C    -2.411499     3.465470     1.722159
 H    -3.148348     4.007498     2.321674
 C    -0.418117     3.432741     0.395918
 H     0.439939     3.941471    -0.052212
 C    -1.337074     4.163707     1.153307
 C    -1.199250     5.647019     1.338908
 H    -1.973946     6.191105     0.773527
 H    -0.220443     6.006419     0.991135
 H    -1.310345     5.934764     2.395848
