  86
scf done:    -4272.063467
 C    -0.206818    -3.573684    -0.720542
 H     0.372833    -4.401685    -0.295909
 H    -1.277836    -3.806507    -0.705452
 C     0.317435    -3.036914    -2.007037
 H     1.230448    -3.521780    -2.380295
 H    -0.430969    -2.980363    -2.810780
 H     0.642251    -1.910064    -1.927721
Co     0.341483    -1.773343    -0.207573
 O    -2.069187     0.210239    -1.205332
 C    -3.037675    -2.087468    -0.191701
 C    -2.013691    -0.079601     1.529721
 O     2.209918     0.437299     1.234152
 C     3.080617    -0.265663    -1.282007
 C     0.978871     1.589474    -0.829811
 P     1.582040    -0.034684    -0.259987
 P    -1.620490    -0.939029    -0.035634
 C     1.023466    -2.430869     1.214257
 O     1.370187    -2.878140     2.223885
 C    -2.994586     1.200961    -1.037867
 C    -2.642912     2.373990    -0.364636
 H    -1.640710     2.462848     0.056074
 C    -4.278908     1.070874    -1.564534
 H    -4.556720     0.154098    -2.085537
 C    -3.568288     3.400177    -0.225110
 H    -3.275493     4.310395     0.305803
 C    -5.198206     2.108952    -1.414958
 H    -6.202775     1.993603    -1.831596
 C    -4.865050     3.289927    -0.745154
 C    -5.849645     4.414164    -0.601661
 H    -5.879034     4.793749     0.431300
 H    -6.865952     4.097577    -0.875693
 H    -5.580422     5.264295    -1.250112
 C    -3.483624    -2.842454     0.900180
 H    -3.065441    -2.662179     1.893708
 C    -3.564648    -2.359610    -1.459914
 H    -3.203021    -1.793743    -2.321896
 C    -4.456187    -3.824954     0.739050
 H    -4.818599    -4.415916     1.582134
 C    -4.539648    -3.337836    -1.636336
 H    -4.965003    -3.555251    -2.617832
 C    -4.975534    -4.056455    -0.529601
 F    -5.908310    -4.992373    -0.688963
 C    -3.329622     0.252783     1.888721
 H    -4.163292    -0.049713     1.251680
 C    -0.963571     0.324021     2.362685
 H     0.066033     0.066042     2.108141
 C    -3.591517     0.978012     3.044604
 H    -4.608501     1.249497     3.332440
 C    -1.211235     1.053936     3.521925
 H    -0.400568     1.371973     4.179699
 C    -2.524056     1.373222     3.844458
 F    -2.769875     2.071699     4.949316
 C     3.538941     0.376337     1.568785
 C     4.416966     1.383433     1.168650
 H     4.044315     2.216404     0.570007
 C     4.003753    -0.686709     2.340588
 H     3.305347    -1.464943     2.651821
 C     5.758341     1.314877     1.532567
 H     6.438435     2.108998     1.212038
 C     5.348278    -0.738065     2.699352
 H     5.703215    -1.574809     3.307442
 C     6.252182     0.252411     2.298551
 C     7.708330     0.164742     2.653145
 H     8.157625     1.162258     2.765767
 H     8.275576    -0.361731     1.867095
 H     7.862477    -0.387023     3.591699
 C     3.666462     0.757681    -2.037464
 H     3.204040     1.746554    -2.068036
 C     3.686775    -1.529307    -1.259535
 H     3.220220    -2.329471    -0.678769
 C     4.836400     0.529064    -2.753867
 H     5.305918     1.312381    -3.351459
 C     4.863810    -1.767310    -1.959756
 H     5.354320    -2.742064    -1.945278
 C     5.422806    -0.730556    -2.698550
 F     6.544992    -0.950429    -3.375625
 C     0.345601     1.661882    -2.077610
 H     0.193330     0.753235    -2.664646
 C     1.116659     2.751040    -0.064184
 H     1.586137     2.691449     0.919252
 C    -0.112758     2.876900    -2.570636
 H    -0.616005     2.951466    -3.535755
 C     0.651220     3.974988    -0.543749
 H     0.744392     4.891990     0.040787
 C     0.047457     4.020322    -1.793580
 F    -0.402848     5.183206    -2.254464
