  64
scf done:    -3385.867651
 C     1.893550    -3.754475    -0.490793
 H     2.807778    -4.242635    -0.132698
 H     1.032801    -4.408935    -0.307743
 C     1.982732    -3.206651    -1.878751
 H     2.953471    -3.355312    -2.372099
 H     1.176434    -3.535758    -2.550864
 H     1.855021    -2.042552    -1.905850
Co     1.741831    -1.838855    -0.171712
 O    -1.211003    -0.557970    -0.472134
 C    -1.435433    -3.259704     0.076451
 C    -0.638321    -1.351406     2.089520
 O     1.161295     1.135749     0.764370
 C     3.625328     0.958163    -0.380432
 C     1.251477     0.930860    -2.034436
 P     1.928793     0.262423    -0.455387
 P    -0.333741    -1.794618     0.331202
 C     2.954238    -1.925099     1.029221
 O     3.702066    -2.007562     1.909871
 C    -2.556569    -0.371138    -0.458663
 C    -3.181767     0.330133     0.578781
 H    -2.581077     0.714016     1.404399
 C    -3.320381    -0.830716    -1.536581
 H    -2.816640    -1.353822    -2.351483
 C    -4.558933     0.537346     0.555995
 H    -5.065078     1.078283     1.357670
 C    -4.696530    -0.626724    -1.564782
 H    -5.309276    -0.983012    -2.394870
 C    -5.302102     0.050204    -0.512169
 F    -6.620289     0.245878    -0.534441
 H    -0.789376    -4.124379     0.296376
 C    -2.739430    -3.383797     0.852723
 H    -3.430491    -2.552629     0.658567
 H    -2.562107    -3.425631     1.937397
 H    -1.612588    -3.303538    -1.012118
 H    -3.257604    -4.314669     0.573710
 H    -1.720874    -1.256319     2.268105
 C    -0.011670    -2.345151     3.057697
 H     1.074894    -2.413702     2.909752
 H    -0.426932    -3.358353     2.937934
 H    -0.184845    -0.354523     2.205203
 H    -0.193834    -2.036655     4.098362
 C     0.796246     2.447006     0.693181
 C    -0.464681     2.786096     0.195639
 H    -1.122215     1.989482    -0.152519
 C     1.653687     3.445342     1.161099
 H     2.624108     3.163684     1.573282
 C    -0.858671     4.119573     0.140228
 H    -1.837422     4.406920    -0.248213
 C     1.264323     4.781675     1.106920
 H     1.916586     5.580044     1.465464
 C     0.014194     5.103269     0.591477
 F    -0.359078     6.381695     0.537476
 H     3.978246     0.747902     0.642307
 C     4.538849     0.302836    -1.406251
 H     4.249013     0.559255    -2.437437
 H     4.497067    -0.793377    -1.309365
 H     3.593075     2.052627    -0.502359
 H     5.583124     0.619454    -1.267219
 H     0.159815     0.823650    -1.932973
 C     1.659548     2.317380    -2.510868
 H     2.742919     2.386749    -2.689708
 H     1.386511     3.104935    -1.795639
 H     1.543651     0.170270    -2.778885
 H     1.157952     2.550547    -3.462899
