  98
scf done:    -4429.206018
 C     1.501017     2.463133    -1.952527
 H     1.786848     3.498671    -1.731150
 H     2.339196     1.945266    -2.435586
 C     0.185414     2.312826    -2.638913
 H    -0.355414     3.252607    -2.816527
 H     0.216587     1.715322    -3.561322
 H    -0.585174     1.710553    -1.995567
Co     0.455729     1.522347    -0.600207
 O     0.255969    -1.525081    -1.526917
 C     2.824964    -0.652436    -1.915754
 C     1.826093    -1.405770     0.676612
 O    -1.119771    -0.179581     1.631358
 C    -2.379346     2.240184     1.062264
 C    -2.489411     0.020516    -0.836465
 P    -1.345714     0.871324     0.345838
 P     1.351266    -0.408166    -0.819454
 C     0.898701     2.680792     0.579017
 O     1.240205     3.443400     1.380798
 C     0.540947    -2.694771    -2.165886
 C     0.811113    -3.863805    -1.450827
 H     0.812758    -3.832898    -0.361096
 C     0.482081    -2.707734    -3.571849
 C     0.154293    -1.451669    -4.319577
 H     0.961211    -0.706508    -4.230232
 H     0.003312    -1.655596    -5.388065
 H    -0.754458    -0.976708    -3.919884
 C     1.055817    -5.056249    -2.129308
 H     1.267529    -5.966558    -1.563632
 C     0.727437    -3.917371    -4.226894
 H     0.683918    -3.941429    -5.319257
 C     1.019642    -5.083701    -3.521007
 H     1.208662    -6.014832    -4.059509
 H     2.842159    -1.705134    -2.237838
 H     2.650839    -0.042399    -2.817927
 C     4.135874    -0.294135    -1.271856
 C     4.332019     0.936660    -0.628194
 H     3.506416     1.647634    -0.566789
 C     5.195656    -1.207377    -1.293042
 H     5.062945    -2.173081    -1.788672
 C     5.543512     1.243717    -0.019763
 H     5.692608     2.189053     0.504375
 C     6.416924    -0.914133    -0.689583
 H     7.246690    -1.623192    -0.699380
 C     6.571758     0.310541    -0.054513
 F     7.728472     0.590074     0.546193
 H     0.853458    -1.678275     1.109285
 H     2.320508    -2.324390     0.327442
 C     2.669388    -0.714218     1.706362
 C     3.986952    -1.115160     1.948625
 H     4.411864    -1.944336     1.378777
 C     2.148824     0.348328     2.454371
 H     1.110638     0.642462     2.301945
 C     4.781512    -0.458097     2.883343
 H     5.816552    -0.753581     3.063527
 C     2.931509     1.023771     3.385052
 H     2.536682     1.865699     3.955955
 C     4.244615     0.615425     3.582043
 F     5.004471     1.262776     4.467315
 C    -2.074815    -0.756211     2.435664
 C    -2.745131     0.008542     3.390558
 H    -2.488243     1.061458     3.507467
 C    -2.300533    -2.138081     2.327085
 C    -1.481401    -2.990200     1.408749
 H    -2.024928    -3.901457     1.126256
 H    -1.198487    -2.457066     0.493041
 H    -0.548137    -3.298499     1.910445
 C    -3.717805    -0.576855     4.197136
 H    -4.243539     0.029747     4.938050
 C    -3.287773    -2.697364     3.143151
 H    -3.495176    -3.766878     3.051573
 C    -4.004673    -1.932245     4.060229
 H    -4.773343    -2.400062     4.678982
 H    -3.285724     1.840169     1.534728
 H    -1.755357     2.687719     1.851122
 C    -2.712394     3.253942     0.005856
 C    -1.837407     4.312897    -0.274529
 H    -0.936527     4.442091     0.326511
 C    -3.877794     3.139265    -0.763523
 H    -4.589706     2.335994    -0.558000
 C    -2.104888     5.217464    -1.298217
 H    -1.430175     6.047588    -1.514948
 C    -4.159387     4.033932    -1.793235
 H    -5.067362     3.948962    -2.392638
 C    -3.261075     5.060909    -2.052968
 F    -3.519722     5.919664    -3.036957
 H    -2.860493     0.852623    -1.461499
 H    -1.800580    -0.557709    -1.468424
 C    -3.610054    -0.870461    -0.380787
 C    -3.637627    -2.196946    -0.829168
 H    -2.846057    -2.552002    -1.494032
 C    -4.648003    -0.444110     0.459462
 H    -4.673732     0.581544     0.827650
 C    -4.638183    -3.080349    -0.433257
 H    -4.655239    -4.116054    -0.777304
 C    -5.652939    -1.312113     0.870414
 H    -6.447338    -0.986154     1.543289
 C    -5.630492    -2.627521     0.424474
 F    -6.582661    -3.468466     0.826099
