  88
scf done:    -3577.422799
 C     0.702220    -3.054784     0.740192
 H     0.593279    -3.983133     0.165436
 H     1.705053    -3.006389     1.184295
 C    -0.422649    -2.770918     1.675025
 H    -1.234949    -3.510696     1.664079
 H    -0.116866    -2.561389     2.710901
 H    -0.992054    -1.786238     1.391304
Co    -0.056707    -1.443941    -0.047082
 C     1.129000     1.317676     1.768348
 C     3.070490    -0.669634     1.328712
 C     2.155826     0.948974    -0.898093
 C    -1.388709     1.222864    -1.769150
 C    -3.173107    -0.990539    -1.244803
 C    -2.438773     0.766505     0.947987
 P    -1.693087    -0.111561    -0.526379
 P     1.500292    -0.031673     0.552369
 C     0.011109    -2.095291    -1.615595
 O     0.120953    -2.505863    -2.697747
 H     2.009426     1.967136     1.904767
 H     0.354710     1.950991     1.300138
 C     0.630243     0.788828     3.106941
 H     1.449532     0.253951     3.616751
 H    -0.149717     0.028513     2.928637
 C     0.093069     1.883823     4.015283
 H     0.860742     2.647552     4.216731
 H    -0.767039     2.397127     3.554349
 H    -0.241513     1.480397     4.983071
 H     2.738095    -1.346721     2.136241
 H     3.580847     0.173512     1.821312
 C     4.048506    -1.387395     0.436257
 C     5.420708    -1.285941     0.704915
 H     5.755157    -0.680009     1.552156
 C     3.644934    -2.161335    -0.659218
 H     2.579815    -2.250158    -0.882428
 C     6.360795    -1.935873    -0.091354
 H     7.424939    -1.840693     0.138878
 C     4.584575    -2.808770    -1.459800
 H     4.243057    -3.401683    -2.311819
 C     5.945306    -2.700632    -1.180789
 H     6.680342    -3.207522    -1.810527
 H     1.266962     1.257480    -1.463203
 H     2.685867     0.215291    -1.523569
 C     3.015807     2.131587    -0.581610
 C     4.396487     1.998810    -0.384047
 H     4.862289     1.018107    -0.505711
 C     2.448454     3.406358    -0.446928
 H     1.375167     3.533998    -0.617047
 C     5.178670     3.100604    -0.043311
 H     6.254292     2.973501     0.103194
 C     3.227715     4.509576    -0.107423
 H     2.762774     5.493871    -0.010416
 C     4.598149     4.359822     0.101805
 H     5.212456     5.223372     0.367426
 H    -0.870235     2.027566    -1.219347
 H    -0.638247     0.798410    -2.456812
 C    -2.552699     1.798533    -2.569159
 H    -3.365490     2.113175    -1.898416
 H    -2.973732     1.011980    -3.216225
 C    -2.118578     2.980540    -3.421988
 H    -1.751284     3.805832    -2.790904
 H    -1.306718     2.703677    -4.113636
 H    -2.954231     3.369559    -4.023063
 H    -2.884141    -1.237810    -2.278108
 H    -4.027169    -0.298029    -1.291278
 C    -3.504526    -2.238253    -0.484332
 C    -4.382696    -2.215760     0.605882
 H    -4.894732    -1.286700     0.868990
 C    -2.889475    -3.454244    -0.815029
 H    -2.211536    -3.497632    -1.669048
 C    -4.627856    -3.364711     1.357544
 H    -5.318399    -3.322024     2.203270
 C    -3.137224    -4.604463    -0.070385
 H    -2.648814    -5.541515    -0.348380
 C    -4.000781    -4.563306     1.024664
 H    -4.191507    -5.465662     1.610325
 H    -1.580348     1.052822     1.568617
 H    -2.974568    -0.019065     1.503857
 C    -3.302877     1.954976     0.675690
 C    -4.681262     1.833975     0.455628
 H    -5.158642     0.855885     0.549377
 C    -2.729463     3.231412     0.584098
 H    -1.660712     3.353615     0.782090
 C    -5.453291     2.942756     0.115106
 H    -6.525711     2.823302    -0.056542
 C    -3.497095     4.341400     0.241947
 H    -3.026815     5.325121     0.170755
 C    -4.862353     4.199619    -0.004820
 H    -5.466124     5.068445    -0.276289
