  90
scf done:    -3652.162319
 C    -1.299069    -2.853414    -1.351741
 H    -1.195492    -3.896450    -1.029003
 H    -2.364227    -2.590075    -1.392203
 C    -0.514084    -2.497046    -2.571217
 H     0.033492    -3.335374    -3.024293
 H    -1.084171    -1.967895    -3.348975
 H     0.361094    -1.758497    -2.333761
Co    -0.011090    -1.573987    -0.634236
 C    -2.811420     0.283370    -1.299508
 O    -2.641000    -0.790392     1.076665
 O    -0.982199     1.127125     0.630572
 C     2.063739     0.339527     1.168213
 O     3.027176    -1.089883    -0.991293
 O     1.868164     1.091450    -1.401893
 P     1.680029    -0.291716    -0.519218
 P    -1.548007    -0.279596    -0.048676
 C     0.660443    -2.682064     0.506966
 O     1.027648    -3.365495     1.364739
 H    -2.289042     1.067184    -1.870251
 H    -2.901396    -0.578518    -1.979870
 C    -4.163314     0.757742    -0.854503
 C    -4.407354     2.128953    -0.720848
 H    -3.614834     2.832868    -0.983144
 C    -5.211852    -0.147386    -0.580474
 C    -5.049651    -1.622730    -0.793216
 H    -4.224940    -2.017961    -0.185011
 H    -4.822468    -1.853914    -1.847323
 H    -5.968507    -2.163134    -0.527552
 C    -5.631125     2.618999    -0.273496
 H    -5.786638     3.696183    -0.177071
 C    -6.435317     0.358938    -0.130201
 H    -7.244311    -0.344201     0.086980
 C    -6.650817     1.724803     0.037529
 H    -7.618340     2.087260     0.392834
 C    -2.281490    -1.549260     2.234356
 H    -1.216399    -1.361763     2.466077
 C    -2.475618    -3.030766     1.978764
 H    -1.886002    -3.355265     1.114080
 H    -3.537667    -3.249403     1.787184
 H    -2.154589    -3.613902     2.854641
 C    -3.156588    -1.056628     3.370197
 H    -3.021805     0.018619     3.547500
 H    -4.215570    -1.226593     3.123134
 H    -2.924390    -1.596916     4.300046
 C    -1.692522     2.065982     1.439975
 H    -2.761390     1.794965     1.450826
 C    -1.507130     3.443530     0.832003
 H    -1.837104     3.467230    -0.215029
 H    -0.444185     3.729916     0.857596
 H    -2.081667     4.197306     1.390900
 C    -1.134769     2.008289     2.850530
 H    -1.182814     0.988696     3.254098
 H    -0.081112     2.327877     2.861855
 H    -1.701023     2.672823     3.520519
 H     1.291540     1.106992     1.321773
 H     1.827022    -0.486065     1.853090
 C     3.446199     0.866345     1.373525
 C     3.752965     2.183471     1.013063
 H     2.958298     2.816960     0.613438
 C     4.461901     0.035515     1.890268
 C     4.171181    -1.381501     2.293451
 H     3.719813    -1.950997     1.466864
 H     3.461656    -1.425878     3.136192
 H     5.088680    -1.899343     2.605470
 C     5.044547     2.685820     1.139628
 H     5.262617     3.715819     0.847475
 C     5.753234     0.558660     2.018086
 H     6.543796    -0.082076     2.418875
 C     6.052417     1.866340     1.642879
 H     7.071597     2.245472     1.749655
 C     4.196062    -0.522122    -1.605620
 H     4.346534     0.498148    -1.217738
 C     3.998078    -0.472533    -3.108861
 H     3.141467     0.163358    -3.363808
 H     3.817496    -1.485420    -3.501415
 H     4.893464    -0.063831    -3.601455
 C     5.370604    -1.394269    -1.216272
 H     5.520176    -1.392726    -0.129758
 H     5.200836    -2.429877    -1.548494
 H     6.291241    -1.021245    -1.689117
 C     0.803633     1.857448    -1.967197
 H    -0.050189     1.830461    -1.273544
 C     0.380791     1.280480    -3.303795
 H     0.035266     0.246170    -3.172843
 H     1.216460     1.287554    -4.020313
 H    -0.446393     1.866015    -3.733650
 C     1.301076     3.283830    -2.070952
 H     1.565021     3.676917    -1.078722
 H     2.196199     3.334723    -2.709628
 H     0.525169     3.932764    -2.503866
