  66
scf done:    -3337.868823
 C     0.947330    -3.560816     0.037415
 H     0.488880    -4.447188    -0.415720
 H     1.988683    -3.441140    -0.277596
 C     0.686606    -3.394466     1.494793
 H     0.070808    -4.182718     1.950607
 H     1.588377    -3.229988     2.102343
 H     0.061394    -2.422856     1.735704
Co    -0.123845    -1.927917     0.070822
 C     1.986406     0.731114     0.775752
 O     2.920204    -1.363788    -0.733657
 O     1.267852     0.374244    -1.693887
 C    -2.021219     0.730429    -0.767450
 O    -2.989966    -0.908399     1.104834
 O    -1.125239     0.752932     1.675199
 P    -1.515427    -0.411560     0.565518
 P     1.489934    -0.620688    -0.384380
 C    -1.135434    -2.581744    -1.145011
 O    -1.750095    -2.981069    -2.041794
 H     1.100047     1.381472     0.831267
 H     2.066076     0.236499     1.755114
 C     3.223123     1.499322     0.435452
 C     3.142663     2.585820    -0.443409
 H     2.165763     2.862879    -0.845934
 C     4.479231     1.119190     0.951588
 C     4.613506    -0.052296     1.882198
 H     4.206846    -0.969229     1.426949
 H     4.065923     0.112946     2.825209
 H     5.666160    -0.233726     2.139236
 C     4.279599     3.292308    -0.823914
 H     4.194111     4.134954    -1.514164
 C     5.611044     1.844130     0.564222
 H     6.586520     1.552477     0.963741
 C     5.522474     2.918820    -0.317473
 H     6.423924     3.465062    -0.605282
 C     3.923694    -0.863701    -1.595017
 H     3.695499     0.150827    -1.951600
 H     4.883449    -0.835274    -1.059006
 H     4.018689    -1.540696    -2.459694
 C     0.816430    -0.155091    -2.920545
 H     1.656656    -0.560418    -3.509092
 H     0.076176    -0.956487    -2.768768
 H     0.352629     0.663667    -3.488504
 H    -1.112123     1.314205    -0.982101
 H    -2.198794     0.093674    -1.645754
 C    -3.191689     1.614154    -0.456686
 C    -2.983044     2.822354     0.215744
 H    -1.964209     3.098978     0.496360
 C    -4.501286     1.233249    -0.811368
 C    -4.769755    -0.054690    -1.534712
 H    -4.361635    -0.912734    -0.980930
 H    -4.306219    -0.064236    -2.535459
 H    -5.848409    -0.213569    -1.669612
 C    -4.045905     3.660305     0.539850
 H    -3.860827     4.600416     1.064936
 C    -5.557245     2.088844    -0.481119
 H    -6.575104     1.799475    -0.757208
 C    -5.341604     3.290875     0.188569
 H    -6.187055     3.938132     0.434236
 C    -3.173833    -2.165831     1.712190
 H    -2.403659    -2.881576     1.377119
 H    -3.135104    -2.079162     2.810966
 H    -4.165086    -2.544246     1.424010
 C    -0.824525     0.368450     2.991620
 H    -1.740317     0.108639     3.548827
 H    -0.134523    -0.495682     3.018060
 H    -0.338780     1.218377     3.490779
