 110
scf done:    -3665.621631
 C     0.484731    -1.218033    -3.007665
 H     0.041472    -1.033024    -3.993595
 H     1.578788    -1.215358    -3.092393
 C    -0.084773    -2.390601    -2.280205
 H    -0.875743    -2.936159    -2.814486
 H     0.664022    -3.110343    -1.913752
 H    -0.620346    -2.071620    -1.290568
Co    -0.377435    -0.349036    -1.490774
 C     2.097474    -1.365149     0.681191
 C     2.943809     0.426888    -1.515466
 C     1.514797     1.467639     0.734519
 C    -2.156943     1.701884     0.616057
 C    -3.544987    -0.642993    -0.378544
 C    -1.584243    -0.880089     1.724349
 P    -1.848446    -0.064774     0.084083
 P     1.492308     0.032060    -0.428769
 C    -1.111924     0.820812    -2.486229
 O    -1.545979     1.687115    -3.128956
 H     1.414163    -1.329231     1.543778
 H     1.851915    -2.286479     0.134703
 C     3.521547    -1.355979     1.132735
 C     3.891339    -0.600084     2.253192
 H     3.111462    -0.093586     2.828151
 C     4.520270    -2.054242     0.419284
 C     4.177952    -2.969930    -0.722220
 H     3.615993    -2.464306    -1.521564
 H     3.553060    -3.812533    -0.382117
 H     5.086908    -3.392704    -1.171545
 C     5.222627    -0.468306     2.636356
 H     5.484264     0.136853     3.507501
 C     5.854233    -1.906168     0.813351
 H     6.630297    -2.435253     0.253189
 C     6.214448    -1.111124     1.899433
 H     7.265722    -1.010830     2.178958
 H     3.247448    -0.526951    -1.974044
 H     2.515192     1.012665    -2.345441
 C     4.161457     1.130098    -0.927013
 H     3.917636     2.185724    -0.718013
 H     4.439670     0.687378     0.039690
 C     5.373035     1.068866    -1.846659
 H     5.126630     1.520520    -2.825175
 H     5.608580     0.008781    -2.054543
 C     6.604789     1.745153    -1.262205
 H     6.372928     2.804983    -1.054355
 H     6.826170     1.288582    -0.281218
 C     7.828319     1.654455    -2.159417
 H     8.701940     2.150769    -1.709880
 H     7.644178     2.127356    -3.137667
 H     8.104475     0.604719    -2.350627
 H     0.802835     1.231360     1.544247
 H     2.506080     1.565807     1.205716
 C     1.109262     2.761190     0.041482
 H     1.884622     3.049061    -0.688877
 H     0.204786     2.573134    -0.558806
 C     0.866109     3.919153     0.997567
 H     1.793649     4.142332     1.555759
 H     0.127176     3.615071     1.762228
 C     0.370117     5.178945     0.302145
 H     1.106698     5.484778    -0.461635
 H    -0.552229     4.938311    -0.256167
 C     0.105880     6.332789     1.255251
 H    -0.252021     7.226803     0.722573
 H     1.018809     6.615711     1.803901
 H    -0.657201     6.064395     2.003710
 H    -1.369300     1.924047     1.351158
 H    -1.944928     2.319323    -0.265774
 C    -3.511087     2.004743     1.179736
 C    -3.793076     1.723675     2.522502
 H    -2.994657     1.337717     3.161777
 C    -4.524529     2.559328     0.367855
 C    -4.258606     2.971787    -1.052682
 H    -3.835386     2.165497    -1.670295
 H    -3.531122     3.799448    -1.096202
 H    -5.181021     3.317837    -1.538487
 C    -5.057966     1.938777     3.062488
 H    -5.250587     1.710096     4.113337
 C    -5.790943     2.766128     0.925859
 H    -6.578085     3.192025     0.297497
 C    -6.067920     2.453685     2.254405
 H    -7.067673     2.626342     2.659736
 H    -4.150476    -0.754221     0.536612
 H    -4.003056     0.178581    -0.951057
 C    -3.562701    -1.904703    -1.227598
 H    -2.935121    -1.728513    -2.116931
 H    -3.086686    -2.741552    -0.687678
 C    -4.963130    -2.316689    -1.655518
 H    -5.438447    -1.477912    -2.196110
 H    -5.589639    -2.487355    -0.760876
 C    -4.982856    -3.560032    -2.533674
 H    -4.350467    -3.382021    -3.421469
 H    -4.503798    -4.393882    -1.989912
 C    -6.379183    -3.970266    -2.972270
 H    -6.359702    -4.870656    -3.604890
 H    -6.867237    -3.168700    -3.549789
 H    -7.023032    -4.187047    -2.104536
 H    -0.721335    -0.364587     2.181757
 H    -2.452802    -0.681901     2.373387
 C    -1.304319    -2.373288     1.640615
 H    -2.220896    -2.908967     1.340982
 H    -0.571200    -2.559330     0.837068
 C    -0.778703    -2.963767     2.941054
 H    -1.516749    -2.801630     3.747421
 H     0.126784    -2.409719     3.251595
 C    -0.446036    -4.445502     2.840824
 H    -1.350111    -4.999707     2.532160
 H     0.286034    -4.592521     2.026688
 C     0.100885    -5.031057     4.132284
 H     0.332412    -6.101740     4.027508
 H    -0.622784    -4.926436     4.956670
 H     1.026763    -4.519413     4.440833
