 108
scf done:    -3739.386425
 C    -1.031105    -2.098445    -2.373383
 H    -0.698197    -3.117379    -2.604781
 H    -2.129952    -2.059701    -2.376414
 C    -0.374548    -1.031447    -3.181066
 H     0.413045    -1.378096    -3.863431
 H    -1.066072    -0.377016    -3.735058
 H     0.172874    -0.251062    -2.500487
Co    -0.016592    -1.140912    -1.005820
 C    -2.605986     0.972521    -1.373906
 C    -3.254603    -1.498722     0.032071
 C    -2.002623     0.692314     1.452720
 C     1.961942    -0.136560     1.548541
 C     3.302630    -0.655854    -1.017524
 C     1.666147     1.854801    -0.666310
 P     1.711556     0.019723    -0.310867
 P    -1.855474    -0.250234    -0.154046
 C     0.648952    -2.556320    -0.331246
 O     1.070549    -3.494552     0.212516
 H    -2.470240     0.486798    -2.351178
 H    -1.925626     1.838643    -1.365075
 C    -4.031118     1.390121    -1.210534
 C    -4.402727     2.420809    -0.335573
 H    -3.629921     2.979228     0.198059
 C    -5.046471     0.719865    -1.907153
 H    -4.776111    -0.070989    -2.612506
 C    -5.743321     2.739816    -0.131846
 H    -6.009238     3.542952     0.559942
 C    -6.387550     1.034997    -1.704924
 H    -7.160890     0.491543    -2.253337
 C    -6.743269     2.040743    -0.807031
 H    -7.794790     2.287268    -0.643308
 H    -3.624630    -1.583742    -1.006849
 C    -4.455133    -1.100842     0.897505
 H    -4.834674    -0.105877     0.631230
 H    -4.147476    -1.048663     1.955783
 C    -5.576856    -2.128287     0.770201
 H    -6.429441    -1.830269     1.402368
 H    -5.948264    -2.124275    -0.270812
 C    -5.100539    -3.528493     1.137080
 H    -5.911442    -4.262419     0.998421
 H    -4.843034    -3.550078     2.211925
 C    -3.873940    -3.923835     0.323351
 H    -4.160710    -4.025588    -0.739551
 H    -3.502652    -4.912691     0.638369
 C    -2.758339    -2.890066     0.432913
 H    -2.380688    -2.865872     1.470520
 H    -1.902424    -3.172819    -0.192903
 H    -3.072541     0.945707     1.553566
 C    -1.217877     2.001593     1.489146
 H    -1.483764     2.650413     0.639682
 H    -0.145681     1.780932     1.380425
 C    -1.431414     2.747291     2.802298
 H    -0.846955     3.682323     2.804588
 H    -2.493373     3.042353     2.884237
 C    -1.054579     1.877776     3.995943
 H    -1.247786     2.412330     4.940070
 H     0.032889     1.680064     3.970114
 C    -1.803997     0.551053     3.969131
 H    -2.882262     0.740844     4.119937
 H    -1.481688    -0.089846     4.805730
 C    -1.610147    -0.183000     2.645902
 H    -0.556744    -0.485784     2.537672
 H    -2.190517    -1.116420     2.649415
 H     1.311962    -0.982865     1.807897
 H     1.510305     0.753825     2.006966
 C     3.329955    -0.385987     2.106630
 C     4.103356     0.639492     2.664604
 H     3.699203     1.653363     2.713476
 C     3.861824    -1.683182     2.087021
 H     3.254092    -2.503586     1.693622
 C     5.384432     0.387288     3.150624
 H     5.971409     1.203215     3.579420
 C     5.144857    -1.936481     2.566282
 H     5.541921    -2.954068     2.535558
 C     5.915785    -0.900195     3.091771
 H     6.922296    -1.098145     3.467539
 H     3.429415    -1.567171    -0.404473
 C     4.575753     0.177576    -0.863510
 H     4.706634     0.513078     0.173610
 H     4.498891     1.085121    -1.486599
 C     5.799755    -0.621261    -1.304445
 H     6.707197    -0.004181    -1.200565
 H     5.927641    -1.478054    -0.618976
 C     5.655621    -1.126975    -2.734603
 H     6.530865    -1.732965    -3.020499
 H     5.638581    -0.262408    -3.423606
 C     4.371082    -1.929114    -2.908237
 H     4.435759    -2.855010    -2.308660
 H     4.252043    -2.247042    -3.956963
 C     3.144864    -1.140951    -2.460641
 H     2.996327    -0.279654    -3.135343
 H     2.238210    -1.759219    -2.530307
 H     0.613523     2.086459    -0.432891
 C     1.836267     2.152315    -2.158775
 H     1.180524     1.498351    -2.754869
 H     2.869408     1.927531    -2.470762
 C     1.530232     3.615194    -2.464018
 H     1.682009     3.815752    -3.536928
 H     0.461790     3.810791    -2.258850
 C     2.385763     4.550319    -1.618039
 H     2.130893     5.601849    -1.826972
 H     3.446640     4.425295    -1.901505
 C     2.226513     4.248995    -0.132823
 H     1.188573     4.474811     0.173657
 H     2.876756     4.906241     0.467117
 C     2.528260     2.786116     0.184829
 H     3.596827     2.581284     0.012150
 H     2.344557     2.603410     1.254264
