 104
scf done:    -3587.049954
 C     1.316799    -2.506148    -1.428845
 H     1.325897    -2.774194    -2.492351
 H     2.284593    -2.752745    -0.973633
 C     0.130248    -2.989509    -0.671509
 H    -0.641749    -3.484814    -1.276240
 H     0.367406    -3.604799     0.209382
 H    -0.429425    -2.107276    -0.142558
Co     0.444543    -0.828196    -0.952509
 C     1.662277    -0.437971     2.365553
 C     3.609171    -0.853632     0.327439
 C     2.221130     1.646409     0.445725
 C    -1.476802     1.933916    -1.711791
 C    -2.880955    -0.437766    -0.719990
 C    -1.488797     1.291993     1.090359
 P    -1.271402     0.461548    -0.556039
 P     1.897569    -0.176990     0.520777
 C     0.686003    -0.255048    -2.532030
 O     0.971913     0.178310    -3.573600
 H     0.919592     0.304208     2.696211
 H     2.603944    -0.228801     2.897058
 C     1.179589    -1.827012     2.652416
 C     2.078476    -2.895831     2.768262
 H     3.152770    -2.700994     2.714095
 C    -0.189246    -2.107394     2.748849
 H    -0.909888    -1.290741     2.672776
 C     1.624074    -4.199995     2.955424
 H     2.344762    -5.016945     3.040508
 C    -0.648867    -3.407921     2.939905
 H    -1.723063    -3.596841     3.010364
 C     0.257239    -4.463214     3.037032
 H    -0.099633    -5.485272     3.183102
 H     4.251253    -0.490404     1.147939
 H     3.526461    -1.945417     0.455689
 C     4.222625    -0.538310    -1.028501
 H     3.490680    -0.779443    -1.817317
 H     4.405678     0.547773    -1.110691
 C     5.523135    -1.284237    -1.290196
 H     5.334989    -2.371696    -1.225667
 H     6.250069    -1.058170    -0.488083
 C     6.143513    -0.960261    -2.641939
 H     5.407898    -1.179565    -3.435524
 H     6.329529     0.126848    -2.702581
 C     7.433886    -1.716452    -2.913224
 H     7.856970    -1.460535    -3.896518
 H     7.269036    -2.805959    -2.896072
 H     8.198654    -1.489134    -2.152770
 H     2.432493     1.851230    -0.617376
 H     1.255535     2.138883     0.644711
 C     3.304436     2.238338     1.333585
 H     3.089051     2.017563     2.393616
 H     4.273668     1.757772     1.115665
 C     3.451250     3.744739     1.161597
 H     2.484222     4.233572     1.381385
 H     3.663357     3.970383     0.100668
 C     4.536518     4.356790     2.036139
 H     4.322109     4.123818     3.094430
 H     5.499745     3.864543     1.812876
 C     4.677769     5.860191     1.861371
 H     5.469363     6.272485     2.505229
 H     3.739850     6.381470     2.112382
 H     4.927517     6.119241     0.819875
 H    -0.496853     2.081452    -2.185829
 H    -1.679293     2.819875    -1.092521
 C    -2.548727     1.779276    -2.748771
 C    -3.829529     2.304000    -2.532009
 H    -4.031068     2.866674    -1.615725
 C    -2.310124     1.072967    -3.935430
 H    -1.313606     0.671660    -4.131565
 C    -4.848020     2.122018    -3.464852
 H    -5.838638     2.543234    -3.276107
 C    -3.329155     0.889222    -4.868142
 H    -3.122358     0.337286    -5.788389
 C    -4.602248     1.407994    -4.636541
 H    -5.398795     1.262813    -5.370144
 H    -3.708435     0.286786    -0.779368
 H    -2.840143    -0.936422    -1.701632
 C    -3.138907    -1.453956     0.382853
 H    -2.273683    -2.128334     0.485940
 H    -3.233385    -0.940206     1.356122
 C    -4.387834    -2.290774     0.145117
 H    -4.305368    -2.794208    -0.834899
 H    -5.268387    -1.627527     0.066610
 C    -4.627423    -3.331699     1.229953
 H    -3.744268    -3.992495     1.292317
 H    -4.690884    -2.825150     2.209963
 C    -5.876804    -4.167230     1.003882
 H    -6.019940    -4.910939     1.802387
 H    -5.824205    -4.711752     0.047463
 H    -6.779080    -3.535518     0.971729
 H    -1.317341     0.509880     1.846600
 H    -0.642373     1.990561     1.197967
 C    -2.797476     2.013893     1.371279
 H    -2.976818     2.786958     0.604111
 H    -3.642695     1.310213     1.287820
 C    -2.828634     2.666420     2.747280
 H    -1.985887     3.376400     2.834755
 H    -2.649656     1.896145     3.519686
 C    -4.133461     3.390252     3.048592
 H    -4.308374     4.156922     2.272926
 H    -4.971432     2.676750     2.955492
 C    -4.162113     4.037275     4.423720
 H    -5.116658     4.551624     4.611404
 H    -3.356610     4.781372     4.531994
 H    -4.025654     3.288344     5.220410
