  76
scf done:    -3268.962337
 C     0.732831    -2.811166    -1.373100
 H     0.522217    -3.218641    -2.368486
 H     1.804960    -2.856863    -1.153937
 C    -0.180562    -3.285932    -0.295953
 H    -0.996066    -3.941196    -0.632144
 H     0.325091    -3.742452     0.567990
 H    -0.746993    -2.396156     0.227352
Co    -0.180797    -1.159382    -0.868397
 C     2.008200    -0.218404     1.680794
 O     2.935429    -0.759034    -0.787761
 O     1.572497     1.431267    -0.449708
 C    -1.646229     1.837808    -0.991297
 O    -3.164998    -0.157956    -0.052551
 O    -1.385644     0.822939     1.440819
 P    -1.563741     0.249780    -0.109018
 P     1.545218    -0.191659    -0.106071
 C    -0.607336    -0.892183    -2.507277
 O    -0.799175    -0.672175    -3.627396
 H     2.984443     0.264194     1.856436
 H     1.246634     0.377210     2.211295
 C     2.028860    -1.646703     2.210638
 H     2.744483    -2.243520     1.620573
 H     1.042867    -2.102925     2.028572
 C     2.376427    -1.729724     3.687808
 H     3.376139    -1.311933     3.888440
 H     1.656780    -1.161814     4.299883
 H     2.371746    -2.770286     4.046667
 C     4.210300    -0.135721    -0.708971
 H     4.148258     0.766247    -0.073300
 C     4.610529     0.285248    -2.109884
 H     3.850570     0.957317    -2.532454
 H     4.681233    -0.598652    -2.761653
 H     5.582913     0.801148    -2.108405
 C     5.189835    -1.107022    -0.078348
 H     4.887146    -1.363099     0.947643
 H     5.227587    -2.036812    -0.666175
 H     6.201955    -0.676320    -0.042429
 C     2.125151     2.514273     0.298376
 H     2.849617     2.124801     1.034097
 C     1.022025     3.239273     1.048900
 H     0.412399     2.536184     1.632849
 H     0.351079     3.756338     0.345926
 H     1.450200     3.993571     1.726416
 C     2.855595     3.421821    -0.671559
 H     3.679667     2.892439    -1.169771
 H     2.160754     3.777815    -1.447214
 H     3.269501     4.296324    -0.147279
 H    -0.604656     2.187121    -1.067117
 H    -1.949194     1.566586    -2.017380
 C    -2.572275     2.886489    -0.398126
 H    -2.243030     3.111565     0.628995
 H    -3.585042     2.460796    -0.307639
 C    -2.611986     4.162368    -1.224634
 H    -1.611222     4.617283    -1.305773
 H    -2.964248     3.965661    -2.249843
 H    -3.283627     4.912059    -0.778673
 C    -3.667464    -1.362288    -0.630094
 H    -2.816014    -2.052476    -0.772825
 C    -4.267614    -1.053763    -1.987228
 H    -3.498987    -0.666920    -2.671909
 H    -5.065028    -0.300596    -1.890921
 H    -4.696451    -1.960782    -2.439469
 C    -4.660281    -1.962405     0.343347
 H    -4.180375    -2.175065     1.310011
 H    -5.494672    -1.265914     0.519879
 H    -5.072000    -2.902705    -0.052565
 C    -2.118704     0.340691     2.561445
 H    -3.186165     0.313106     2.284269
 C    -1.916402     1.347293     3.674827
 H    -2.234750     2.348344     3.350606
 H    -0.853962     1.399063     3.960815
 H    -2.500220     1.065392     4.563710
 C    -1.682968    -1.059075     2.955891
 H    -1.812907    -1.764750     2.122489
 H    -0.623376    -1.071729     3.250991
 H    -2.282360    -1.423079     3.803966
