 100
scf done:    -3434.764701
 C    -0.826260     0.397700    -2.894297
 H    -0.493775    -0.163108    -3.776913
 H    -1.896622     0.615445    -2.976862
 C     0.018769     1.577137    -2.558327
 H     0.880897     1.741295    -3.220840
 H    -0.536964     2.520378    -2.440162
 H     0.516937     1.472164    -1.503253
Co    -0.059565    -0.143368    -1.181650
 C    -1.578225     1.577569     1.458315
 C    -3.311424     1.028972    -0.765339
 C    -2.601583    -1.093319     1.063999
 C     1.700760    -1.482417     1.544391
 C     3.173222    -0.852601    -0.827447
 C     2.176666     1.307710     1.047962
 P     1.690133    -0.267425     0.151005
 P    -1.804539     0.318085     0.111098
 C     0.150146    -1.714244    -1.794215
 O     0.222755    -2.796964    -2.210808
 H    -2.481799     1.659438     2.086137
 H    -0.782603     1.185700     2.114279
 C    -1.165447     2.946144     0.932056
 H    -1.948891     3.346414     0.266912
 H    -0.275745     2.828390     0.291283
 C    -0.885178     3.947897     2.041009
 H    -1.777895     4.112513     2.665178
 H    -0.082601     3.591058     2.706775
 H    -0.574392     4.924215     1.638354
 H    -2.871023     1.777117    -1.452268
 C    -4.345945     1.751304     0.100303
 H    -3.878363     2.529364     0.720796
 H    -4.806432     1.030946     0.801015
 C    -5.437276     2.390743    -0.757651
 H    -6.184089     2.881353    -0.111757
 H    -4.981971     3.192291    -1.367536
 C    -6.110988     1.383264    -1.681171
 H    -6.847719     1.887562    -2.327561
 H    -6.678836     0.657125    -1.071229
 C    -5.084201     0.629815    -2.517905
 H    -4.594079     1.327406    -3.221245
 H    -5.578362    -0.137543    -3.135716
 C    -4.024897    -0.014679    -1.630961
 H    -4.523602    -0.744962    -0.970393
 H    -3.298453    -0.581019    -2.231554
 H    -3.655164    -0.789480     1.213986
 C    -2.001141    -1.333219     2.450435
 H    -2.052536    -0.421600     3.063794
 H    -0.932343    -1.579482     2.340645
 C    -2.706770    -2.471806     3.183292
 H    -2.227016    -2.639964     4.161941
 H    -3.747540    -2.167476     3.397607
 C    -2.720907    -3.758046     2.366883
 H    -3.278050    -4.545213     2.900658
 H    -1.686600    -4.129238     2.256741
 C    -3.313026    -3.520294     0.983859
 H    -4.383873    -3.263374     1.083633
 H    -3.270120    -4.442400     0.381939
 C    -2.587320    -2.394120     0.256926
 H    -1.542530    -2.687445     0.072208
 H    -3.017987    -2.244382    -0.741359
 H     2.704456    -1.501359     1.998701
 H     1.023783    -1.073717     2.314009
 C     1.270530    -2.893279     1.173415
 H     1.916948    -3.289837     0.373768
 H     0.261415    -2.854787     0.738745
 C     1.291355    -3.838743     2.363535
 H     2.302540    -3.924118     2.793121
 H     0.623145    -3.485244     3.165789
 H     0.962817    -4.849765     2.078717
 H     2.876628    -1.902203    -1.020024
 C     4.533793    -0.878845    -0.132594
 H     4.470641    -1.371878     0.850289
 H     4.871310     0.155138     0.055488
 C     5.573824    -1.586843    -0.999179
 H     6.554599    -1.577629    -0.495858
 H     5.287890    -2.648960    -1.105064
 C     5.677132    -0.954482    -2.382525
 H     6.403162    -1.505149    -3.002572
 H     6.072765     0.072858    -2.280515
 C     4.317242    -0.899599    -3.069692
 H     3.968520    -1.927384    -3.276590
 H     4.399366    -0.397539    -4.047447
 C     3.280510    -0.192849    -2.204031
 H     3.564001     0.867548    -2.091948
 H     2.289195    -0.208380    -2.681509
 H     1.192813     1.664761     1.400493
 C     2.725141     2.375818     0.098218
 H     2.076505     2.480793    -0.784930
 H     3.709536     2.052002    -0.280074
 C     2.884421     3.723429     0.794208
 H     3.303716     4.461504     0.091379
 H     1.888306     4.100497     1.084946
 C     3.761857     3.606422     2.034001
 H     3.834139     4.577399     2.550220
 H     4.789735     3.340415     1.726772
 C     3.231361     2.537316     2.980643
 H     2.249093     2.857085     3.373950
 H     3.894056     2.431670     3.855000
 C     3.071060     1.186721     2.285608
 H     4.064835     0.806349     1.998018
 H     2.653322     0.461749     2.999048
