  92
scf done:    -3878.222178
 C     1.173610    -3.126541     0.602572
 H     1.551750    -3.915563    -0.056627
 H     1.920066    -2.886589     1.368759
 C    -0.218524    -3.310905     1.097704
 H    -0.748206    -4.185508     0.697943
 H    -0.322762    -3.279128     2.192172
 H    -0.925038    -2.426521     0.793504
Co     0.244368    -1.628861    -0.239226
 C     0.846089     0.701650     2.272213
 O     2.914204    -0.483900     1.235193
 O     1.587778     1.162891    -0.304649
 C    -0.973538     0.606067    -2.455838
 O    -2.747708    -0.948485    -1.268353
 O    -1.626896     0.862199     0.224870
 P    -1.245547    -0.304361    -0.908900
 P     1.354335    -0.139627     0.729708
 C     0.731087    -2.162078    -1.807088
 O     1.170698    -2.450631    -2.836397
 H     1.698064     1.244507     2.708418
 H     0.088222     1.439714     1.965960
 C     0.237578    -0.286551     3.258917
 H     0.997413    -1.033219     3.547585
 H    -0.558813    -0.846163     2.739972
 C    -0.327187     0.387951     4.497931
 H     0.453982     0.935160     5.049018
 H    -1.111131     1.113740     4.228501
 H    -0.771229    -0.345413     5.188599
 C     3.801300    -1.202979     0.481306
 C     3.827421    -1.120830    -0.908506
 H     3.126263    -0.460744    -1.421546
 C     4.704485    -2.020840     1.162674
 H     4.663117    -2.062944     2.252591
 C     4.736765    -1.886801    -1.647634
 C     4.713834    -1.818866    -3.146487
 H     3.725544    -2.119218    -3.528451
 H     4.901206    -0.792630    -3.500613
 H     5.472721    -2.476312    -3.592927
 C     5.622675    -2.766292     0.432291
 H     6.332660    -3.410769     0.956459
 C     5.635000    -2.709242    -0.962072
 H     6.351689    -3.311534    -1.526001
 C     2.116410     2.391036    -0.025876
 C     3.235839     2.565288     0.787943
 H     3.709345     1.691466     1.237753
 C     1.513981     3.492693    -0.641025
 H     0.650338     3.333524    -1.288822
 C     3.753113     3.846114     1.018047
 C     4.949802     4.016180     1.908846
 H     4.706178     3.758070     2.952206
 H     5.773725     3.355492     1.598093
 H     5.318525     5.051199     1.896579
 C     2.030671     4.764192    -0.418600
 H     1.563099     5.627080    -0.899246
 C     3.138421     4.944249     0.409223
 H     3.536479     5.947877     0.578075
 H    -0.047037     1.174403    -2.266832
 H    -0.689058    -0.190624    -3.165295
 C    -2.075063     1.474743    -3.050488
 H    -2.280844     2.329874    -2.389977
 H    -3.008937     0.892585    -3.098307
 C    -1.699942     1.979685    -4.435592
 H    -0.776423     2.580024    -4.405574
 H    -1.527210     1.145395    -5.134164
 H    -2.495244     2.611963    -4.858375
 C    -3.277385    -1.934834    -0.480502
 C    -3.383077    -1.772864     0.901104
 H    -3.040346    -0.842132     1.358787
 C    -3.702766    -3.113657    -1.092244
 H    -3.598542    -3.216926    -2.173373
 C    -3.900839    -2.798885     1.700680
 C    -3.987969    -2.612152     3.187610
 H    -3.020094    -2.290986     3.604020
 H    -4.723380    -1.833633     3.446998
 H    -4.286762    -3.539819     3.694818
 C    -4.230966    -4.129030    -0.301939
 H    -4.563167    -5.058617    -0.770278
 C    -4.324261    -3.978814     1.082543
 H    -4.729127    -4.790805     1.691699
 C    -2.496867     1.917596     0.142401
 C    -3.855515     1.731093    -0.109262
 H    -4.235030     0.725218    -0.290904
 C    -1.986438     3.194120     0.384071
 H    -0.921219     3.314741     0.587337
 C    -4.723214     2.827979    -0.154447
 C    -6.176434     2.620394    -0.468977
 H    -6.321719     2.438062    -1.546619
 H    -6.581067     1.746567     0.063118
 H    -6.778378     3.498606    -0.196724
 C    -2.849681     4.284661     0.347531
 H    -2.457247     5.287195     0.534520
 C    -4.205593     4.107160     0.076029
 H    -4.873674     4.971671     0.048500
