  96
scf done:    -3282.423739
 C    -0.782211     2.834582     0.883324
 H    -0.745361     3.768791     0.309410
 H    -1.728663     2.776810     1.435116
 C     0.432608     2.568128     1.708561
 H     1.224163     3.327556     1.632705
 H     0.228952     2.359434     2.769866
 H     0.979600     1.587956     1.375670
Co    -0.066955     1.243107     0.017612
 C    -1.153189    -1.508513     1.946493
 C    -3.087268     0.542390     1.526569
 C    -2.316571    -1.154757    -0.649455
 C     1.079330    -1.414408    -1.860378
 C     2.888000     0.810318    -1.478090
 C     2.383748    -0.998669     0.728007
 P     1.516628    -0.095370    -0.635302
 P    -1.572899    -0.168553     0.730674
 C    -0.274409     1.913670    -1.534439
 O    -0.507134     2.310353    -2.601200
 H    -2.051598    -2.090292     2.214248
 H    -0.476721    -2.205565     1.419201
 C    -0.472981    -0.972203     3.199453
 H    -1.186853    -0.347421     3.763489
 H     0.340131    -0.290831     2.896666
 C     0.075324    -2.064728     4.103523
 H    -0.719808    -2.753800     4.430211
 H     0.836762    -2.666885     3.580546
 H     0.546399    -1.646021     5.006021
 H    -3.692106    -0.264192     1.975100
 H    -2.735068     1.168622     2.363987
 C    -3.921838     1.382830     0.568686
 H    -3.250138     2.022102    -0.029375
 H    -4.430300     0.722432    -0.155200
 C    -4.959852     2.247463     1.269258
 H    -4.447047     2.924959     1.976632
 H    -5.617228     1.609859     1.888956
 C    -5.808712     3.070922     0.311005
 H    -5.143297     3.695968    -0.310088
 H    -6.320682     2.391397    -0.393525
 C    -6.833030     3.949382     1.010747
 H    -7.429896     4.531219     0.291978
 H    -6.345515     4.664293     1.693168
 H    -7.532312     3.346821     1.612990
 H    -2.628134    -0.409980    -1.400914
 H    -1.482397    -1.700785    -1.115906
 C    -3.455041    -2.113807    -0.335456
 H    -3.120488    -2.874577     0.390747
 H    -4.283669    -1.574161     0.154473
 C    -3.989861    -2.816554    -1.576671
 H    -3.164598    -3.359415    -2.073266
 H    -4.326715    -2.058002    -2.306550
 C    -5.130119    -3.783156    -1.289155
 H    -4.789350    -4.537024    -0.557121
 H    -5.950129    -3.235521    -0.791388
 C    -5.660738    -4.479683    -2.531786
 H    -6.483398    -5.170410    -2.292139
 H    -4.870443    -5.063903    -3.030357
 H    -6.041206    -3.751164    -3.265789
 H     0.678582    -2.255332    -1.266684
 H     0.222051    -1.008648    -2.421689
 C     2.133307    -1.914296    -2.842447
 H     3.031362    -2.258365    -2.306075
 H     2.464530    -1.077834    -3.478437
 C     1.603611    -3.037069    -3.722204
 H     1.305169    -3.910170    -3.119575
 H     0.717837    -2.712278    -4.291128
 H     2.360685    -3.374503    -4.446296
 H     3.706405     0.123476    -1.749344
 H     2.453025     1.186599    -2.419992
 C     3.405003     1.978822    -0.653449
 H     2.541169     2.602136    -0.366219
 H     3.843654     1.609267     0.291470
 C     4.434457     2.828963    -1.382809
 H     3.992929     3.200510    -2.325212
 H     5.292904     2.199416    -1.681480
 C     4.933513     4.008356    -0.559787
 H     4.069083     4.627164    -0.260684
 H     5.370767     3.632546     0.382598
 C     5.952354     4.868576    -1.289451
 H     6.292544     5.711739    -0.669267
 H     5.529328     5.287370    -2.216711
 H     6.842189     4.282414    -1.570911
 H     2.695453    -0.213136     1.438688
 H     1.594848    -1.560524     1.253166
 C     3.555691    -1.915425     0.414336
 H     3.218871    -2.745362    -0.229596
 H     4.322792    -1.372201    -0.164420
 C     4.195110    -2.493926     1.670265
 H     3.424955    -3.026124     2.258625
 H     4.541656    -1.666596     2.316144
 C     5.356686    -3.436181     1.387656
 H     5.004757    -4.260041     0.741547
 H     6.120453    -2.900331     0.796467
 C     5.990589    -4.007376     2.645651
 H     6.825558    -4.684168     2.409466
 H     5.257500    -4.577784     3.238540
 H     6.383920    -3.207287     3.293220
