 108
scf done:    -4039.178737
 C     0.216495     0.413979    -3.201178
 H     0.164826     1.244670    -3.915720
 H     1.181086    -0.101976    -3.321118
 C    -0.964676    -0.501130    -3.214893
 H    -1.772484    -0.202158    -3.897457
 H    -0.726475    -1.563676    -3.380771
 H    -1.482653    -0.542892    -2.177170
Co    -0.506278     0.703878    -1.414591
 C     1.893511    -1.758799    -0.993197
 C     2.731018     1.052047    -1.334525
 C     1.577661     0.133691     1.298959
 C    -2.171749     1.818150     1.506671
 C    -3.673512     0.789545    -0.792220
 C    -2.342765    -0.899177     1.218654
 P    -2.053877     0.575473     0.118788
 P     1.364687     0.003285    -0.568539
 C    -0.648230     2.391078    -1.728450
 O    -0.578362     3.513097    -2.004136
 H     1.270657    -2.005800    -1.867113
 H     1.535304    -2.386463    -0.165711
 C     3.322682    -2.076407    -1.308814
 C     4.209503    -2.538117    -0.328354
 H     3.856783    -2.680801     0.693468
 C     3.803427    -1.926272    -2.617925
 H     3.119228    -1.596499    -3.405936
 C     5.538695    -2.811950    -0.640685
 H     6.210761    -3.163891     0.145686
 C     5.133722    -2.196586    -2.932736
 H     5.485306    -2.066717    -3.959105
 C     6.010742    -2.635015    -1.940989
 H     7.054961    -2.845748    -2.183484
 H     3.087804     0.461716    -2.189220
 H     2.181799     1.903455    -1.755305
 C     3.901630     1.517711    -0.527775
 C     5.111808     0.814962    -0.558649
 H     5.190509    -0.080265    -1.176207
 C     3.811409     2.696247     0.243182
 C     2.573394     3.543469     0.215415
 H     1.649299     2.951507     0.261965
 H     2.505982     4.118838    -0.723345
 H     2.566088     4.263100     1.046246
 C     6.208877     1.230730     0.189473
 H     7.138139     0.657494     0.152422
 C     4.918857     3.093740     1.001280
 H     4.845081     4.000042     1.609001
 C     6.108971     2.368789     0.986742
 H     6.958174     2.701072     1.588757
 H     1.839500     1.188627     1.467945
 H     0.554869     0.008514     1.680815
 C     2.532005    -0.751567     2.047371
 C     3.841098    -0.315028     2.283929
 H     4.139634     0.673717     1.936677
 C     2.133623    -2.009150     2.553842
 C     0.716973    -2.496502     2.458545
 H     0.292437    -2.417547     1.448287
 H     0.058354    -1.917066     3.127924
 H     0.639963    -3.549420     2.761733
 C     4.767672    -1.111504     2.948186
 H     5.783903    -0.741548     3.101783
 C     3.079825    -2.800759     3.216781
 H     2.771267    -3.778013     3.598266
 C     4.390986    -2.371233     3.406252
 H     5.107903    -3.013579     3.923214
 H    -1.379405     1.526808     2.213973
 H    -3.131685     1.643264     2.017430
 C    -2.008143     3.254752     1.123170
 C    -3.061897     3.995366     0.572207
 H    -4.047428     3.538417     0.453422
 C    -0.775336     3.890237     1.301570
 H     0.048093     3.331139     1.751220
 C    -2.875615     5.318265     0.178930
 H    -3.708570     5.875527    -0.256082
 C    -0.585946     5.212557     0.912783
 H     0.389039     5.684920     1.052310
 C    -1.634108     5.929404     0.340224
 H    -1.485628     6.964617     0.025149
 H    -3.755061     1.880818    -0.916031
 H    -3.474042     0.405180    -1.798859
 C    -4.932939     0.202303    -0.232708
 C    -5.588342     0.816801     0.843052
 H    -5.174239     1.735091     1.266505
 C    -5.496943    -0.963123    -0.798860
 C    -4.864867    -1.656018    -1.971255
 H    -3.830241    -1.963448    -1.756534
 H    -4.837858    -1.003384    -2.859368
 H    -5.428020    -2.559844    -2.238951
 C    -6.770589     0.303042     1.370713
 H    -7.259579     0.806734     2.207678
 C    -6.689270    -1.461177    -0.261786
 H    -7.126440    -2.360768    -0.703347
 C    -7.325969    -0.845131     0.812692
 H    -8.255269    -1.260236     1.209633
 H    -1.478214    -0.907262     1.903621
 H    -3.220510    -0.662779     1.834976
 C    -2.498287    -2.245431     0.572641
 C    -1.603189    -2.650848    -0.423217
 H    -0.818117    -1.952605    -0.719242
 C    -3.516606    -3.131430     0.983323
 C    -4.452620    -2.790796     2.105967
 H    -4.998260    -1.853934     1.920158
 H    -3.907654    -2.671572     3.056757
 H    -5.199007    -3.584230     2.246667
 C    -1.717374    -3.888987    -1.049203
 H    -1.004504    -4.176310    -1.825935
 C    -3.625167    -4.367527     0.336034
 H    -4.420705    -5.051759     0.643806
 C    -2.745682    -4.749192    -0.674984
 H    -2.859022    -5.721993    -1.159287
