  60
scf done:    -2811.050219
 C    -2.001761    -2.540290    -0.276828
 H    -1.841023    -3.617408    -0.405194
 H    -2.789321    -2.378005     0.474602
 C    -2.199488    -1.780284    -1.548506
 H    -2.128937    -2.382456    -2.464825
 H    -3.118879    -1.175578    -1.580098
 H    -1.377295    -0.958783    -1.700036
Co    -0.423524    -1.399584    -0.303513
 C    -2.788605     0.499426     1.303580
 C    -1.375658    -1.398200     2.883528
 C    -0.152234     1.030497     2.231545
 C     2.594414     0.085501    -0.031285
 C     1.794868    -0.673549    -2.690996
 C     0.660727     1.645261    -1.524418
 P     1.099293    -0.089198    -1.094201
 P    -1.126961    -0.313448     1.420648
 C     0.657300    -2.707648    -0.088966
 O     1.394039    -3.565125     0.174348
 H    -3.095217     0.888852     2.290487
 H    -3.494893    -0.307049     1.045717
 C    -2.819215     1.594829     0.247990
 H    -2.152727     2.417802     0.560418
 H    -2.384809     1.197057    -0.687348
 C    -4.201089     2.181636    -0.051956
 H    -4.638875     2.512210     0.908964
 C    -4.071012     3.403959    -0.953720
 H    -3.432296     4.176455    -0.497444
 H    -5.051794     3.858170    -1.163560
 H    -3.619058     3.127607    -1.921320
 C    -5.143788     1.154553    -0.669226
 H    -6.137510     1.589538    -0.857188
 H    -5.286640     0.276460    -0.021923
 H    -4.750053     0.797029    -1.635840
 H    -2.068685    -2.208306     2.618798
 H    -0.410490    -1.857335     3.142632
 H    -1.766688    -0.847928     3.754155
 H    -0.699823     1.465540     3.082567
 H     0.793257     0.610171     2.605374
 H     0.090835     1.832610     1.520769
 H     2.959159    -0.946645     0.110905
 H     2.213565     0.399844     0.951276
 C     3.715165     0.998416    -0.502231
 H     4.028407     0.709225    -1.519767
 H     3.348337     2.037912    -0.580160
 C     4.953478     0.991149     0.400785
 H     5.304018    -0.055864     0.469837
 C     6.069774     1.819879    -0.224246
 H     6.326876     1.456649    -1.231579
 H     6.984360     1.789405     0.387890
 H     5.768183     2.876746    -0.317906
 C     4.643891     1.475511     1.813180
 H     5.551041     1.481157     2.436798
 H     3.903123     0.838616     2.319252
 H     4.246493     2.504708     1.795354
 H     2.240488    -1.666449    -2.533571
 H     0.972034    -0.787163    -3.411948
 H     2.548480     0.009188    -3.112351
 H     0.341496     2.186998    -0.623204
 H     1.493442     2.187760    -1.996645
 H    -0.191333     1.626836    -2.219933
