 108
scf done:    -3439.550708
 C    -1.018589     2.935105     1.438732
 H    -0.898889     3.935010     1.003495
 H    -2.001725     2.853407     1.920588
 C     0.129777     2.485099     2.277749
 H     0.987046     3.172202     2.306867
 H    -0.142217     2.196518     3.305393
 H     0.576029     1.472656     1.891735
Co    -0.324376     1.448345     0.393353
 C    -1.640030    -1.349726     2.167528
 C    -3.481162     0.683787     1.495136
 C    -2.445207    -0.984911    -0.586910
 C     1.072305    -1.120741    -1.446246
 C     2.430457     1.425534    -1.519860
 C     2.629933    -0.213758     0.864415
 P     1.402954     0.369036    -0.406209
 P    -1.878988    -0.020540     0.890418
 C    -0.603934     2.289079    -1.054079
 O    -0.874680     2.817698    -2.052880
 H    -2.586836    -1.878112     2.373338
 H    -1.371759    -0.808582     3.090303
 C    -0.543096    -2.326577     1.780362
 H    -0.878742    -2.922508     0.913688
 H     0.325701    -1.745353     1.429086
 C    -0.067567    -3.288049     2.871710
 H    -0.949901    -3.841423     3.244760
 C     0.908321    -4.299982     2.280110
 H     0.453838    -4.860891     1.448265
 H     1.246034    -5.027642     3.034093
 H     1.805052    -3.791725     1.885350
 C     0.564217    -2.554744     4.049821
 H     0.911789    -3.262280     4.818329
 H    -0.139853    -1.862516     4.534952
 H     1.437131    -1.965772     3.720090
 H    -4.165212    -0.131960     1.784497
 H    -3.244634     1.231734     2.423735
 C    -4.142131     1.618698     0.492716
 H    -3.382616     2.310394     0.090894
 H    -4.504673     1.035905    -0.372425
 C    -5.300576     2.413187     1.078204
 H    -4.933160     3.011648     1.932139
 H    -6.051319     1.719671     1.500397
 C    -5.972806     3.335182     0.070658
 H    -5.214584     4.017295    -0.352362
 H    -6.338782     2.734165    -0.780805
 C    -7.119404     4.141773     0.658256
 H    -7.584019     4.797427    -0.093872
 H    -6.774130     4.780241     1.487513
 H    -7.907894     3.483751     1.058414
 H    -2.689089    -0.226757    -1.350015
 H    -1.557312    -1.502564    -0.979417
 C    -3.588821    -1.971732    -0.416060
 H    -3.351778    -2.691223     0.387480
 H    -4.500261    -1.443540    -0.086866
 C    -3.893265    -2.743758    -1.693442
 H    -2.980989    -3.276110    -2.021552
 H    -4.127321    -2.029828    -2.503966
 C    -5.034369    -3.740866    -1.551054
 H    -4.797197    -4.447149    -0.735429
 H    -5.943446    -3.204967    -1.224966
 C    -5.325341    -4.512694    -2.827942
 H    -6.153684    -5.224918    -2.694333
 H    -4.443612    -5.085842    -3.157474
 H    -5.600114    -3.833425    -3.650945
 H     0.416842    -0.749547    -2.253868
 H     0.432977    -1.753315    -0.814639
 C     2.208537    -1.950195    -2.022259
 H     2.918012    -1.304074    -2.565955
 H     2.781481    -2.416728    -1.201604
 C     1.740548    -3.063179    -2.966757
 H     1.193989    -2.581624    -3.799604
 C     2.940815    -3.796549    -3.554015
 H     3.623374    -3.103580    -4.070339
 H     2.629022    -4.564476    -4.278672
 H     3.516889    -4.302449    -2.761017
 C     0.786792    -4.039227    -2.284475
 H     0.509113    -4.859926    -2.963590
 H    -0.146404    -3.553604    -1.960937
 H     1.256619    -4.488699    -1.392789
 H     3.310233     0.875049    -1.891624
 H     1.786521     1.637879    -2.390448
 C     2.837193     2.733587    -0.855553
 H     1.943414     3.160899    -0.368032
 H     3.558506     2.534077    -0.042428
 C     3.432258     3.747945    -1.820089
 H     2.694931     3.958502    -2.615636
 H     4.310184     3.309356    -2.329522
 C     3.835375     5.052973    -1.148123
 H     2.954423     5.477084    -0.634768
 H     4.569964     4.838331    -0.351254
 C     4.410460     6.078174    -2.111782
 H     4.690951     7.009527    -1.596681
 H     3.682619     6.338635    -2.896969
 H     5.311605     5.692210    -2.615434
 H     2.569710     0.507453     1.696316
 H     2.220425    -1.155517     1.267127
 C     4.088992    -0.405563     0.471075
 H     4.172730    -1.052386    -0.415761
 H     4.526011     0.563232     0.176985
 C     4.915990    -1.002477     1.602401
 H     4.484974    -1.978827     1.892357
 H     4.826773    -0.361473     2.498632
 C     6.386576    -1.183859     1.253739
 H     6.468201    -1.819823     0.354329
 H     6.812398    -0.206280     0.965957
 C     7.205463    -1.786845     2.383513
 H     8.262611    -1.905537     2.101707
 H     6.823311    -2.780697     2.667419
 H     7.170559    -1.153081     3.284277
