  84
scf done:    -5562.789554
 C    -0.657264    -3.193838    -1.574616
 H    -0.489708    -4.255435    -1.355669
 H    -1.696093    -3.042781    -1.903610
 C     0.364993    -2.568710    -2.463856
 H     1.219321    -3.208934    -2.720502
 H    -0.041072    -2.116855    -3.382270
 H     0.856047    -1.633136    -1.966175
Co     0.167751    -1.897458    -0.373915
 C    -1.949404     0.138991    -1.940492
 C    -3.184774    -1.510921     0.194784
 C    -1.678013     0.660697     0.977972
 C     2.158315    -0.213908     1.945673
 C     3.342214    -0.932561    -0.573354
 C     1.466454     1.209913    -0.538319
 P     1.719791    -0.471209     0.149875
 P    -1.616106    -0.670195    -0.286742
 C     0.489524    -3.018199     0.882182
 O     0.606589    -3.717762     1.799599
 H    -1.794235    -0.706023    -2.630968
 H    -1.078614     0.801053    -2.071760
 C    -3.215445     0.850826    -2.308411
 C    -3.231130     2.241169    -2.489088
 H    -2.305312     2.812541    -2.369796
 C    -4.401660     0.139961    -2.534699
 H    -4.403624    -0.947539    -2.430267
 C    -4.404641     2.905374    -2.840885
 H    -4.391916     3.989597    -2.976255
 C    -5.575389     0.801503    -2.886745
 H    -6.489926     0.226888    -3.052489
 C    -5.584645     2.188390    -3.031664
 H    -6.505762     2.707102    -3.307210
 C    -3.193437    -2.888152     0.434851
 H    -2.268378    -3.452977     0.308989
 C    -4.362448    -0.782866     0.418722
 H    -4.374319     0.300057     0.282816
 C    -4.354149    -3.536982     0.849841
 H    -4.357217    -4.611518     1.039273
 C    -5.529937    -1.416918     0.827310
 H    -6.446375    -0.848956     0.994767
 C    -5.519610    -2.796849     1.033826
Cl    -6.969834    -3.593184     1.544284
 C    -2.143685     1.962284     0.775919
 H    -2.513286     2.270707    -0.201123
 C    -1.236258     0.299665     2.258956
 H    -0.884926    -0.721654     2.433337
 C    -2.141455     2.893773     1.812623
 H    -2.499865     3.911353     1.647690
 C    -1.229824     1.216422     3.304529
 H    -0.882719     0.932111     4.299432
 C    -1.673079     2.519786     3.069823
Cl    -1.647303     3.677583     4.356294
 H     2.028750    -1.211073     2.392480
 H     1.375257     0.426887     2.375309
 C     3.534260     0.313820     2.205019
 C     3.801865     1.687475     2.247106
 H     2.983362     2.403275     2.148010
 C     4.605080    -0.578021     2.349686
 H     4.412893    -1.653653     2.316179
 C     5.104898     2.155181     2.408635
 H     5.293021     3.231160     2.438364
 C     5.906766    -0.113820     2.512237
 H     6.727230    -0.827654     2.616011
 C     6.162864     1.256678     2.535476
 H     7.184301     1.623765     2.659735
 C     3.612217    -2.286630    -0.794840
 H     2.823284    -3.019411    -0.604125
 C     4.347150     0.010600    -0.825476
 H     4.160829     1.071556    -0.646425
 C     4.862950    -2.700912    -1.245698
 H     5.077584    -3.757377    -1.414176
 C     5.597063    -0.388265    -1.283349
 H     6.383676     0.343813    -1.471464
 C     5.849015    -1.745787    -1.485530
Cl     7.408540    -2.248406    -2.042627
 C     0.984546     2.283203     0.214957
 H     0.859988     2.194835     1.295480
 C     1.572084     1.369303    -1.930027
 H     1.948274     0.546317    -2.543976
 C     0.602093     3.476816    -0.394435
 H     0.208892     4.301323     0.201763
 C     1.188859     2.550083    -2.553313
 H     1.259877     2.661766    -3.636347
 C     0.689474     3.597793    -1.777048
Cl     0.139471     5.047253    -2.548703
