 100
scf done:    -3734.554955
 C    -0.280424    -0.871842    -3.300934
 H    -0.323363    -1.793978    -3.893578
 H    -1.106054    -0.211302    -3.594715
 C     1.058558    -0.210349    -3.278155
 H     1.853940    -0.762547    -3.798021
 H     1.065565     0.837623    -3.615365
 H     1.467236    -0.097915    -2.195095
Co     0.191533    -1.021114    -1.413913
 C    -2.019603     1.805476    -1.048361
 C    -3.006124    -0.853632    -1.551328
 C    -1.920512    -0.052281     1.141398
 C     1.211357    -2.035874     1.795482
 C     3.142734    -1.855201    -0.355560
 C     2.149111     0.474874     1.183590
 P     1.573860    -1.042622     0.274238
 P    -1.578162     0.035231    -0.713872
 C    -0.026779    -2.716405    -1.516431
 O    -0.346132    -3.826000    -1.636973
 H    -3.065250     1.984827    -0.746516
 H    -1.406020     2.411659    -0.363567
 C    -1.768549     2.269354    -2.475390
 H    -2.416993     1.715679    -3.176038
 H    -0.734837     2.016414    -2.764547
 C    -1.997395     3.763147    -2.648015
 H    -3.028290     4.043149    -2.378793
 H    -1.321135     4.343102    -1.999354
 H    -1.823345     4.082784    -3.686922
 H    -3.062455    -0.365326    -2.535931
 H    -2.621241    -1.861879    -1.743433
 C    -4.356901    -0.897658    -0.919275
 C    -5.267930     0.146275    -1.120328
 H    -4.976746     0.986277    -1.756595
 C    -4.741302    -2.002101    -0.126680
 C    -3.828470    -3.179716     0.069183
 H    -2.844295    -2.891706     0.469946
 H    -3.625069    -3.697149    -0.882322
 H    -4.271616    -3.910057     0.759796
 C    -6.528569     0.135346    -0.531397
 H    -7.217304     0.966782    -0.697716
 C    -6.012819    -1.998395     0.458062
 H    -6.312272    -2.850877     1.074043
 C    -6.901499    -0.941219     0.269538
 H    -7.886980    -0.965859     0.740581
 H    -2.365481    -1.043365     1.311600
 H    -0.921926    -0.085103     1.596429
 C    -2.758026     1.014755     1.790935
 C    -4.139436     0.833844     1.923284
 H    -4.586206    -0.099434     1.580937
 C    -2.182667     2.206292     2.286904
 C    -0.698660     2.433684     2.290074
 H    -0.233163     2.285024     1.305039
 H    -0.197946     1.744757     2.991584
 H    -0.457027     3.455591     2.612456
 C    -4.956272     1.812101     2.481904
 H    -6.031514     1.635382     2.559819
 C    -3.018088     3.183058     2.839758
 H    -2.568012     4.106542     3.214814
 C    -4.395474     3.003174     2.931987
 H    -5.022460     3.785502     3.366446
 H     2.156418    -2.130562     2.358825
 H     0.548736    -1.416292     2.423006
 C     0.573315    -3.396280     1.570515
 H     1.177068    -3.990513     0.864414
 H    -0.398113    -3.256678     1.071867
 C     0.385886    -4.171730     2.864824
 H     1.349656    -4.361769     3.364376
 H    -0.248119    -3.616089     3.574621
 H    -0.092613    -5.145427     2.681403
 H     2.980767    -2.926714    -0.155629
 H     3.095444    -1.749196    -1.445828
 C     4.467762    -1.410275     0.177930
 C     4.955366    -1.933521     1.382545
 H     4.356547    -2.675152     1.918858
 C     5.254541    -0.477220    -0.533246
 C     4.787919     0.111859    -1.832609
 H     3.821754     0.627542    -1.722059
 H     4.660473    -0.663452    -2.605966
 H     5.510777     0.846889    -2.210698
 C     6.194464    -1.554482     1.893604
 H     6.552523    -1.980987     2.833470
 C     6.502791    -0.118691    -0.013076
 H     7.115380     0.597723    -0.567055
 C     6.976144    -0.644120     1.186979
 H     7.954510    -0.342263     1.568012
 H     1.294589     0.732562     1.829559
 H     2.954402     0.152130     1.857248
 C     2.561528     1.682232     0.391343
 C     1.764061     2.132167    -0.667675
 H     0.860781     1.566608    -0.909937
 C     3.723635     2.406661     0.731749
 C     4.556535     2.045366     1.927184
 H     4.896538     1.000295     1.899631
 H     3.986653     2.180536     2.861298
 H     5.450184     2.681293     1.987502
 C     2.119444     3.243372    -1.427579
 H     1.479957     3.566847    -2.252813
 C     4.072607     3.513883    -0.050075
 H     4.979947     4.069169     0.203462
 C     3.291831     3.930545    -1.126022
 H     3.593649     4.798991    -1.716398
