  88
scf done:    -3426.083914
 C     0.213886    -0.431807    -3.491813
 H    -0.400188    -0.002883    -4.292401
 H     1.266163    -0.154789    -3.646509
 C    -0.022348    -1.885290    -3.227869
 H    -0.799363    -2.339716    -3.857462
 H     0.881250    -2.511408    -3.250434
 H    -0.433181    -2.084340    -2.149172
Co    -0.519353    -0.399678    -1.680607
 C     1.334515     2.352820    -1.625808
 O     1.328335     0.826524     0.622936
 O     2.728200     0.203206    -1.454323
 C    -1.835012     0.275238     1.419581
 O    -2.766281    -1.803744    -0.119931
 O    -0.594706    -1.962713     1.236714
 P    -1.376102    -0.971580     0.173870
 P     1.173812     0.629872    -1.024790
 C    -1.919309     0.465450    -2.207357
 O    -2.791272     1.126251    -2.579129
 H     2.284704     2.763059    -1.243012
 H     1.448137     2.276968    -2.719226
 C     0.154250     3.244275    -1.265916
 H    -0.058910     3.153542    -0.187337
 H    -0.746751     2.875753    -1.779968
 C     0.388620     4.704713    -1.617356
 H     1.254464     5.115922    -1.072539
 H     0.589725     4.828631    -2.693377
 H    -0.486940     5.323415    -1.368312
 C     2.436076     1.464332     1.238592
 H     2.748408     0.807636     2.069469
 H     3.282309     1.515478     0.534521
 C     2.103206     2.844234     1.773293
 H     3.005831     3.228742     2.281055
 H     1.914223     3.533157     0.933039
 C     0.920029     2.872643     2.727835
 H     1.124091     2.204011     3.583025
 H     0.045848     2.441836     2.214807
 C     0.581921     4.268334     3.223715
 H     1.427474     4.721183     3.766221
 H     0.334436     4.937566     2.383641
 H    -0.282819     4.258319     3.904672
 C     3.083082    -1.146074    -1.685777
 H     2.505400    -1.818022    -1.027736
 H     2.831845    -1.413839    -2.726714
 C     4.568447    -1.334095    -1.461852
 H     4.828876    -2.358715    -1.781974
 H     5.111830    -0.652438    -2.139318
 C     5.030726    -1.110121    -0.029457
 H     4.475496    -1.786646     0.642715
 H     4.754156    -0.089418     0.277993
 C     6.525273    -1.314985     0.153909
 H     6.827005    -2.339549    -0.118103
 H     7.103886    -0.624396    -0.480605
 H     6.833076    -1.144611     1.196764
 H    -2.316270    -0.256105     2.257911
 H    -0.867940     0.645421     1.792912
 C    -2.699088     1.414876     0.899930
 H    -3.564730     1.011710     0.349196
 H    -2.122116     1.988157     0.158543
 C    -3.179802     2.337877     2.008218
 H    -3.801742     1.796035     2.739443
 H    -2.333412     2.777515     2.559817
 H    -3.782797     3.165926     1.606055
 C    -3.558285    -2.409134     0.889270
 H    -3.854642    -3.395834     0.495270
 H    -2.954412    -2.589597     1.795218
 C    -4.794991    -1.588884     1.206949
 H    -5.403653    -2.159300     1.931157
 H    -4.500645    -0.661192     1.726554
 C    -5.627159    -1.238106    -0.018397
 H    -5.980431    -2.169093    -0.496208
 H    -4.973808    -0.751555    -0.761039
 C    -6.808066    -0.337994     0.304076
 H    -7.489809    -0.807848     1.031735
 H    -6.470691     0.616846     0.739702
 H    -7.393996    -0.100566    -0.596540
 C     0.401656    -2.875095     0.822271
 H     0.049691    -3.896889     1.049177
 H     0.545927    -2.802601    -0.270609
 C     1.701006    -2.572805     1.536701
 H     2.475002    -3.268934     1.167045
 H     2.011056    -1.556926     1.241785
 C     1.607770    -2.648890     3.052952
 H     1.323947    -3.673394     3.353264
 H     0.783665    -1.995516     3.382437
 C     2.900373    -2.246338     3.743645
 H     3.739335    -2.893339     3.439139
 H     3.179437    -1.210734     3.489197
 H     2.814565    -2.306978     4.839151
