  56
scf done:    -2958.548248
 C    -1.362353    -3.139454    -0.392222
 H    -1.156541    -4.132857     0.023590
 H    -2.426167    -2.897002    -0.243961
 C    -0.870736    -2.929261    -1.788024
 H    -0.303603    -3.768521    -2.212687
 H    -1.645802    -2.616194    -2.504879
 H    -0.131608    -2.021946    -1.856996
Co    -0.004018    -1.771286    -0.130773
 C    -2.786501     0.041129    -0.911964
 C    -2.504043    -0.816147     1.845759
 C    -1.068629     1.402516     0.942165
 C     2.478249     0.309076     0.869852
 C     3.114237    -1.487690    -1.294076
 C     1.534627     0.791009    -1.839173
 P     1.706841    -0.545273    -0.590416
 P    -1.493254    -0.307093     0.400155
 C     0.808115    -2.650448     1.089323
 O     1.310194    -3.176984     1.993474
 H    -3.134584    -0.951082    -1.240416
 H    -2.221221     0.472984    -1.753315
 C    -3.937712     0.911629    -0.527093
 C    -3.885307     2.300860    -0.707139
 H    -3.004647     2.745589    -1.179167
 C    -5.087598     0.366612     0.061309
 H    -5.154725    -0.716053     0.199166
 C    -4.939334     3.118570    -0.305344
 H    -4.876974     4.198595    -0.460300
 C    -6.143180     1.180929     0.464241
 H    -7.030655     0.732326     0.917450
 C    -6.072395     2.562085     0.286001
 H    -6.900447     3.201528     0.600387
 H    -2.963049    -1.794112     1.646905
 H    -1.818536    -0.939136     2.697083
 H    -3.284372    -0.083624     2.101516
 H    -1.966731     1.984593     1.198778
 H    -0.429475     1.332903     1.834857
 H    -0.511745     1.937792     0.159586
 H     2.685756    -0.500680     1.586918
 H     1.678108     0.920724     1.310346
 C     3.697869     1.128827     0.592296
 C     3.589718     2.481582     0.242256
 H     2.601493     2.949242     0.213482
 C     4.976904     0.558738     0.643285
 H     5.083347    -0.490581     0.931323
 C     4.720448     3.237904    -0.057732
 H     4.612798     4.292306    -0.323829
 C     6.109808     1.312230     0.343864
 H     7.097804     0.848132     0.394479
 C     5.985837     2.654477    -0.011862
 H     6.873826     3.246652    -0.244710
 H     3.416102    -2.261326    -0.573341
 H     2.767316    -1.996744    -2.205407
 H     3.975652    -0.847475    -1.537195
 H     1.191685     0.333898    -2.779454
 H     0.770486     1.513115    -1.518946
 H     2.481507     1.322000    -2.018594
