 102
scf done:    -3960.613132
 C    -0.339446    -2.139717    -2.641698
 H    -0.937351    -2.191038    -3.560306
 H     0.712466    -2.338974    -2.878891
 C    -0.892311    -2.903621    -1.489109
 H    -1.824201    -3.450468    -1.692186
 H    -0.175193    -3.574057    -0.992062
 H    -1.212701    -2.214646    -0.598604
Co    -0.790654    -0.713206    -1.401486
 C     2.502202    -1.691883    -0.807633
 C     1.920607     1.207171    -1.350255
 C     1.305857    -0.003184     1.292169
 C    -1.554085     2.141946     0.265099
 C    -3.816621     0.605580    -0.671673
 C    -2.413497    -0.209025     1.721847
 P    -2.079021     0.366129    -0.035880
 P     1.216487    -0.345239    -0.555727
 C    -1.248722     0.280740    -2.690523
 O    -1.479366     1.016218    -3.562725
 H     2.518652    -2.248361     0.140125
 H     2.055822    -2.363521    -1.554702
 C     3.899844    -1.326793    -1.206684
 C     4.905297    -1.241205    -0.235843
 H     4.657050    -1.452226     0.804857
 C     4.230236    -1.084780    -2.558526
 C     3.226446    -1.270217    -3.661487
 H     2.246351    -0.823709    -3.437283
 H     3.042667    -2.342525    -3.844787
 H     3.589522    -0.834979    -4.602701
 C     6.208897    -0.887657    -0.569709
 H     6.969170    -0.823530     0.212157
 C     5.543308    -0.716031    -2.874885
 H     5.796359    -0.517365    -3.920084
 C     6.529447    -0.609616    -1.896258
 H     7.545758    -0.320062    -2.173899
 H     1.022478     1.742566    -1.688205
 H     2.430082     0.865077    -2.261232
 C     2.805075     2.132351    -0.573573
 C     4.200657     2.043370    -0.642788
 H     4.659871     1.287862    -1.280859
 C     2.245458     3.138955     0.227081
 H     1.158991     3.254256     0.263514
 C     5.008418     2.907843     0.091625
 H     6.094786     2.811863     0.024047
 C     3.050924     4.005376     0.964094
 H     2.590619     4.780435     1.581705
 C     4.439309     3.887017     0.905718
 H     5.074213     4.563881     1.482313
 H     0.438613    -0.559465     1.670463
 H     1.085343     1.068993     1.401483
 C     2.511098    -0.374279     2.097152
 C     3.521850     0.549426     2.390063
 H     3.434929     1.575404     2.031482
 C     2.640718    -1.680318     2.594438
 H     1.844367    -2.406076     2.405520
 C     4.640035     0.171699     3.129330
 H     5.418154     0.909958     3.337923
 C     3.760718    -2.060828     3.331477
 H     3.843090    -3.085183     3.703192
 C     4.770560    -1.136056     3.596296
 H     5.650756    -1.431660     4.172088
 H    -0.786841     2.075953     1.051286
 H    -1.038097     2.446018    -0.654668
 C    -2.627752     3.115394     0.640880
 C    -3.086848     3.177662     1.962646
 H    -2.609156     2.553597     2.721972
 C    -3.220295     3.949099    -0.332196
 C    -2.729349     3.975243    -1.751769
 H    -2.731403     2.984680    -2.230333
 H    -1.691177     4.342628    -1.807778
 H    -3.347409     4.643272    -2.366612
 C    -4.132226     4.019254     2.331546
 H    -4.470761     4.048116     3.369849
 C    -4.270494     4.788466     0.056080
 H    -4.732588     5.433191    -0.696510
 C    -4.734157     4.824961     1.368637
 H    -5.557441     5.490133     1.639289
 H    -3.704576     1.062390    -1.666275
 H    -4.341351     1.323756    -0.024495
 C    -4.569670    -0.684431    -0.761269
 C    -5.562364    -0.997840     0.174944
 H    -5.826640    -0.263745     0.941465
 C    -4.257407    -1.630149    -1.748757
 H    -3.478229    -1.396215    -2.477306
 C    -6.214695    -2.229826     0.142232
 H    -6.983478    -2.456646     0.884625
 C    -4.908197    -2.861072    -1.782058
 H    -4.652241    -3.586514    -2.558402
 C    -5.884282    -3.169028    -0.832904
 H    -6.392173    -4.135946    -0.859510
 H    -3.476453    -0.010845     1.934326
 H    -1.834228     0.453108     2.380884
 C    -2.070455    -1.635553     2.045552
 C    -1.127320    -1.920845     3.041236
 H    -0.653754    -1.099661     3.586820
 C    -2.679392    -2.711637     1.386227
 H    -3.427653    -2.522772     0.615916
 C    -0.783910    -3.235266     3.355576
 H    -0.044669    -3.427606     4.137108
 C    -2.339229    -4.025283     1.698712
 H    -2.828068    -4.844974     1.166709
 C    -1.384920    -4.294573     2.679214
 H    -1.117576    -5.325944     2.920949
