 102
scf done:    -4333.168120
 C     1.619303     1.137964    -3.231377
 H     1.650677     2.104095    -3.747993
 H     2.629084     0.707045    -3.182419
 C     0.562398     0.192555    -3.702472
 H    -0.087780     0.585210    -4.494883
 H     0.947636    -0.798796    -3.984764
 H    -0.182276    -0.106601    -2.851973
Co     0.439155     1.042724    -1.678675
 C     2.895617    -1.358431    -1.416339
 O     3.319295     0.951392    -0.341361
 O     1.663463    -0.587970     0.872579
 C    -1.533866     1.022098     1.143802
 O    -2.564082     1.588929    -1.338867
 O    -2.074534    -0.807089    -0.866936
 P    -1.364517     0.683135    -0.638025
 P     1.958285     0.022212    -0.661267
 C     0.287213     2.764136    -1.637972
 O     0.251910     3.914338    -1.578992
 C     4.269958    -1.292400    -1.651019
 H     4.807607    -0.403162    -1.320126
 C     2.188729    -2.504396    -1.833977
 O     0.868226    -2.525266    -1.563496
 C     0.096058    -3.611434    -2.004079
 H     0.141591    -3.717114    -3.101690
 H    -0.935780    -3.405305    -1.699175
 H     0.422488    -4.555697    -1.535832
 C     4.945082    -2.334047    -2.285205
 H     6.021233    -2.265445    -2.455959
 C     2.861177    -3.549028    -2.475693
 H     2.322102    -4.438843    -2.799785
 C     4.234778    -3.456796    -2.695846
 H     4.749601    -4.280780    -3.196146
 C     3.254606     2.310789    -0.225003
 C     2.778375     2.892770     0.948175
 H     2.452949     2.241810     1.762739
 C     3.703099     3.106430    -1.277956
 H     4.072620     2.629094    -2.186299
 C     2.707652     4.283934     1.077553
 C     2.125527     4.902412     2.314973
 H     1.023711     4.900156     2.266264
 H     2.415833     4.347341     3.219815
 H     2.447973     5.946201     2.435383
 C     3.651844     4.490048    -1.147606
 H     3.993920     5.122588    -1.970115
 C     3.152608     5.075480     0.014288
 H     3.102974     6.164056     0.096698
 C     2.555531    -1.374585     1.555496
 C     3.598195    -0.794878     2.272763
 H     3.714990     0.289734     2.252473
 C     2.386109    -2.760398     1.539116
 H     1.567984    -3.187211     0.957886
 C     4.494245    -1.592718     2.994015
 C     5.613084    -0.954998     3.766110
 H     6.215841    -0.296211     3.121723
 H     5.224103    -0.333117     4.588525
 H     6.282656    -1.708869     4.203083
 C     3.271855    -3.556038     2.257628
 H     3.150258    -4.642000     2.249707
 C     4.317419    -2.979731     2.978712
 H     5.009984    -3.615976     3.535835
 C    -0.480321     1.746351     1.705464
 H     0.352330     2.021407     1.054836
 C    -2.615487     0.638041     1.968479
 O    -3.601273    -0.056076     1.392157
 C    -4.662506    -0.550944     2.158360
 H    -4.304489    -1.240189     2.942214
 H    -5.308174    -1.100741     1.463197
 H    -5.245862     0.266214     2.614738
 C    -0.475003     2.099543     3.051737
 H     0.358782     2.666702     3.468479
 C    -2.605002     0.980620     3.325233
 H    -3.429359     0.681375     3.972185
 C    -1.541437     1.708140     3.855315
 H    -1.552695     1.967395     4.916991
 C    -3.872534     1.631309    -0.938773
 C    -4.771332     0.680418    -1.412420
 H    -4.400029    -0.091594    -2.088542
 C    -4.288862     2.646694    -0.078798
 H    -3.562416     3.384583     0.265460
 C    -6.107710     0.703135    -1.002971
 C    -7.065483    -0.341629    -1.500438
 H    -6.708962    -1.356437    -1.259838
 H    -8.063168    -0.219937    -1.055867
 H    -7.176476    -0.291881    -2.595354
 C    -5.619296     2.676256     0.327229
 H    -5.960205     3.463478     1.004245
 C    -6.519883     1.710287    -0.122879
 H    -7.561823     1.742793     0.206632
 C    -2.139977    -1.885918    -0.046353
 C    -3.203697    -2.766562    -0.262298
 H    -3.923981    -2.523233    -1.046685
 C    -1.192556    -2.150647     0.941610
 H    -0.341118    -1.484313     1.083302
 C    -3.349146    -3.919208     0.511459
 C    -4.518618    -4.837923     0.300817
 H    -4.924892    -4.749501    -0.717068
 H    -4.241094    -5.888846     0.469611
 H    -5.336292    -4.602708     1.002937
 C    -1.340569    -3.299109     1.717832
 H    -0.598513    -3.511570     2.491661
 C    -2.401485    -4.177437     1.511593
 H    -2.495438    -5.075927     2.127124
