 106
scf done:    -3737.386952
 C     0.825319     0.570165    -3.185536
 H     0.587983     1.381084    -3.885384
 H     1.901121     0.351409    -3.203155
 C    -0.057880    -0.630278    -3.298137
 H    -0.901922    -0.523782    -3.993164
 H     0.481467    -1.565587    -3.511738
 H    -0.538330    -0.912715    -2.273477
Co    -0.073669     0.579384    -1.467033
 C     2.135436    -1.747078     0.052603
 C     3.272278     0.737445    -0.766651
 C     1.486340     0.671546     1.456004
 C    -1.537873    -1.225590     1.123928
 C    -2.340250     1.524040     0.931227
 C    -3.249480    -0.385083    -1.016051
 P    -1.721079     0.129835    -0.111214
 P     1.645655     0.005859    -0.261792
 C    -0.327820     2.255880    -1.573244
 O    -0.350535     3.419041    -1.610863
 C     1.952209    -2.386123     1.280511
 H     1.523948    -1.832744     2.118051
 C     2.634242    -2.523606    -1.018232
 O     2.740734    -1.889801    -2.207429
 C     3.206671    -2.585238    -3.327744
 H     4.243007    -2.939665    -3.189158
 H     3.178426    -1.877552    -4.166109
 H     2.563738    -3.450408    -3.568699
 C     2.287149    -3.728713     1.471653
 H     2.129333    -4.191773     2.447792
 C     2.982992    -3.863673    -0.834920
 H     3.387151    -4.449343    -1.660973
 C     2.812697    -4.461994     0.416350
 H     3.091128    -5.509784     0.552399
 H     3.538429     0.278463    -1.729578
 H     4.036770     0.423225    -0.039381
 C     3.200556     2.249607    -0.907576
 H     2.364691     2.497566    -1.580012
 H     2.949434     2.714698     0.063644
 C     4.478125     2.902021    -1.440160
 H     4.713340     2.420707    -2.408686
 C     4.240467     4.385165    -1.699626
 H     3.395339     4.541039    -2.387592
 H     5.129756     4.867714    -2.134766
 H     4.001842     4.911696    -0.760248
 C     5.669957     2.695618    -0.511736
 H     6.574010     3.184612    -0.907400
 H     5.905777     1.630235    -0.369499
 H     5.467170     3.128500     0.483014
 H     0.663232     0.109491     1.924904
 H     1.094396     1.689497     1.305057
 C     2.712172     0.683483     2.359123
 H     3.273436    -0.259389     2.249660
 H     3.403837     1.482451     2.038257
 C     2.381817     0.880877     3.841243
 H     1.722183     0.043646     4.142501
 C     3.648146     0.805965     4.685448
 H     4.181341    -0.144359     4.526081
 H     3.423630     0.891789     5.760147
 H     4.340920     1.623393     4.424147
 C     1.627788     2.181180     4.097363
 H     1.414324     2.313058     5.169556
 H     0.666699     2.214409     3.562156
 H     2.222628     3.049567     3.766923
 C    -1.561249    -1.020352     2.505964
 H    -1.737203    -0.017678     2.899010
 C    -1.284489    -2.531836     0.654601
 O    -1.238248    -2.682161    -0.684750
 C    -0.790182    -3.895870    -1.227337
 H     0.209984    -4.160046    -0.846162
 H    -0.731565    -3.745296    -2.312772
 H    -1.494740    -4.719886    -1.019698
 C    -1.356154    -2.066033     3.407522
 H    -1.377048    -1.872587     4.481954
 C    -1.104352    -3.588717     1.550240
 H    -0.909756    -4.595785     1.182596
 C    -1.140246    -3.351513     2.922954
 H    -0.989728    -4.184171     3.614222
 H    -1.447999     1.964489     1.406941
 H    -2.982172     1.138211     1.737351
 C    -3.079341     2.585229     0.118465
 H    -2.663299     2.639578    -0.898577
 H    -4.136236     2.286358    -0.000582
 C    -3.019418     3.987105     0.726107
 H    -1.948572     4.245813     0.822263
 C    -3.652529     4.999317    -0.219786
 H    -3.144901     4.992594    -1.196382
 H    -3.591870     6.021130     0.186076
 H    -4.718551     4.770337    -0.388136
 C    -3.653799     4.044007     2.110748
 H    -3.591247     5.057456     2.536791
 H    -3.163159     3.358268     2.818760
 H    -4.721277     3.768263     2.063803
 H    -2.946744    -1.209094    -1.679278
 H    -3.482383     0.470908    -1.668472
 C    -4.435944    -0.794500    -0.159204
 H    -4.134323    -1.631799     0.492203
 H    -4.717284     0.029199     0.521996
 C    -5.677828    -1.210067    -0.953117
 H    -5.370551    -2.013404    -1.649546
 C    -6.737219    -1.780756    -0.017321
 H    -6.348007    -2.634756     0.558760
 H    -7.624490    -2.122956    -0.572521
 H    -7.071794    -1.017602     0.705372
 C    -6.246250    -0.062488    -1.780775
 H    -7.141999    -0.378871    -2.337448
 H    -5.521311     0.321114    -2.514011
 H    -6.539553     0.778807    -1.129882
