 106
scf done:    -3737.449272
 C     1.161629    -3.528997     1.426750
 H     1.016773    -4.571942     1.120394
 H     2.226316    -3.337234     1.606130
 C     0.253983    -3.065356     2.517508
 H    -0.456200    -3.820833     2.881280
 H     0.767022    -2.598031     3.370825
 H    -0.450505    -2.201612     2.165770
Co     0.096582    -2.180557     0.505889
 O     1.484109     0.591191     1.449593
 C     3.404406    -1.147712     0.710588
 C     1.787330     0.058603    -1.299037
 O    -1.242897     0.521692    -0.703576
 C    -2.955363    -1.594587    -0.855292
 C    -2.458563    -0.260371     1.618876
 P    -1.577652    -0.909241     0.141436
 P     1.651598    -0.710051     0.366572
 C    -0.228620    -3.244340    -0.793841
 O    -0.382944    -3.918544    -1.723514
 C     1.831739     1.889431     1.257216
 C     1.030189     2.712464     0.460558
 H     0.150266     2.274009    -0.010033
 C     2.961226     2.412346     1.889626
 H     3.564029     1.762546     2.526717
 C     1.363042     4.050836     0.246050
 C     0.524802     4.905085    -0.660945
 H    -0.460327     4.451677    -0.842858
 H     0.374874     5.912228    -0.243378
 H     1.015249     5.030500    -1.640874
 C     3.291676     3.751599     1.688173
 H     4.176221     4.167246     2.177474
 C     2.509507     4.563255     0.869209
 H     2.785894     5.609911     0.716658
 H     3.434376    -1.529481     1.745613
 H     4.000318    -0.221456     0.695383
 C     3.945127    -2.188787    -0.262365
 H     3.186310    -2.977026    -0.403523
 H     4.087966    -1.728522    -1.256157
 C     5.261224    -2.839103     0.169206
 H     5.087879    -3.303171     1.159021
 C     5.648298    -3.945971    -0.804150
 H     4.851269    -4.700569    -0.891165
 H     6.568340    -4.460006    -0.485148
 H     5.829002    -3.535515    -1.811844
 C     6.386317    -1.821267     0.317928
 H     7.326390    -2.308128     0.620699
 H     6.153392    -1.054423     1.071979
 H     6.572600    -1.303669    -0.638548
 H     0.820642     0.559367    -1.455555
 H     1.764005    -0.815549    -1.971089
 C     2.955501     0.987211    -1.622786
 H     3.241479     1.575738    -0.739126
 H     3.849004     0.396202    -1.891563
 C     2.644887     1.968334    -2.755994
 H     1.723413     2.507272    -2.465431
 C     3.758585     2.998488    -2.892341
 H     3.904904     3.548725    -1.949365
 H     3.534234     3.731801    -3.683039
 H     4.715343     2.514261    -3.151177
 C     2.374850     1.257203    -4.076619
 H     2.132571     1.976070    -4.874871
 H     1.532212     0.553458    -3.998373
 H     3.260229     0.684602    -4.401501
 C    -2.156320     1.401177    -1.207251
 C    -2.640022     2.441462    -0.413471
 H    -2.310659     2.511941     0.624378
 C    -2.538539     1.303290    -2.547798
 H    -2.135599     0.493299    -3.158386
 C    -3.519553     3.396057    -0.937961
 C    -4.002308     4.524343    -0.073358
 H    -4.339753     4.160258     0.908971
 H    -3.192722     5.249416     0.112487
 H    -4.834238     5.066716    -0.543440
 C    -3.416559     2.246056    -3.072483
 H    -3.721509     2.174981    -4.119322
 C    -3.906588     3.281928    -2.276776
 H    -4.595298     4.015858    -2.702711
 H    -2.507265    -1.868802    -1.825562
 H    -3.702726    -0.809106    -1.048475
 C    -3.575678    -2.825259    -0.200142
 H    -2.778287    -3.406223     0.296250
 H    -4.273496    -2.511372     0.597201
 C    -4.309501    -3.748079    -1.174835
 H    -3.565594    -4.069719    -1.927380
 C    -4.809385    -4.992192    -0.451412
 H    -3.983350    -5.524489     0.045222
 H    -5.292146    -5.694795    -1.148115
 H    -5.550985    -4.727785     0.321269
 C    -5.445969    -3.036507    -1.899535
 H    -5.959487    -3.716603    -2.596689
 H    -5.088822    -2.174113    -2.482756
 H    -6.197634    -2.666559    -1.181373
 H    -2.882014    -1.143635     2.128615
 H    -3.313033     0.342643     1.269201
 C    -1.551376     0.516101     2.562387
 H    -0.706001    -0.126552     2.853684
 H    -1.077458     1.354006     2.023769
 C    -2.233454     1.056097     3.820026
 H    -2.744732     0.208675     4.315512
 C    -1.185415     1.604211     4.782017
 H    -0.454035     0.830211     5.061059
 H    -1.645185     1.987373     5.706263
 H    -0.625759     2.432025     4.315668
 C    -3.282723     2.117191     3.503784
 H    -3.786093     2.464263     4.419365
 H    -4.061982     1.746038     2.820407
 H    -2.812968     2.997868     3.033349
