 114
scf done:    -3817.951778
 C     1.000796    -3.582740     0.964536
 H     0.455526    -4.505730     0.730494
 H     2.075358    -3.743643     0.815862
 C     0.629869    -2.961709     2.269201
 H    -0.111098    -3.520995     2.859745
 H     1.484556    -2.699807     2.911982
 H     0.098202    -1.928683     2.125780
Co     0.167072    -1.923885     0.376017
 C     2.303703     0.520710     1.575643
 C     3.607273    -1.681220     0.188947
 C     2.056931     0.344034    -1.396007
 C    -1.657489     0.426876    -1.262616
 C    -3.084230    -1.290686     0.695169
 C    -1.330222     0.994573     1.592409
 P    -1.452792    -0.435013     0.397582
 P     2.017627    -0.701098     0.152817
 C    -0.569208    -2.726508    -0.920142
 O    -1.025615    -3.235757    -1.863634
 H     1.331651     0.552875     2.084825
 H     2.983005     0.003897     2.270191
 C     2.777631     1.920618     1.321259
 C     4.071151     2.335316     1.662794
 H     4.752718     1.634832     2.150585
 C     1.925834     2.862974     0.730243
 H     0.904395     2.572840     0.472532
 C     4.497698     3.631153     1.385146
 H     5.510722     3.937369     1.657657
 C     2.335798     4.166023     0.435960
 C     1.397234     5.118961    -0.246127
 H     0.369594     5.012014     0.133149
 H     1.706869     6.164091    -0.105381
 H     1.364717     4.927738    -1.331980
 C     3.642223     4.540362     0.766863
 H     3.986736     5.554650     0.548499
 H     3.427043    -2.335903     1.064530
 C     4.940435    -0.978667     0.445185
 H     4.882407    -0.345385     1.341625
 H     5.186219    -0.307127    -0.391741
 C     6.062373    -2.001108     0.620529
 H     7.021929    -1.482793     0.782126
 H     5.870442    -2.591435     1.535200
 C     6.161780    -2.946577    -0.571344
 H     6.950536    -3.697438    -0.401161
 H     6.468807    -2.370864    -1.463661
 C     4.826149    -3.625382    -0.853425
 H     4.568759    -4.295925    -0.013390
 H     4.898813    -4.264467    -1.748344
 C     3.712477    -2.599524    -1.031026
 H     3.934488    -1.987242    -1.921890
 H     2.744364    -3.089780    -1.217441
 H     1.294707     1.111020    -1.161838
 C     1.546279    -0.413592    -2.626961
 H     0.657629    -1.007842    -2.375525
 H     2.304411    -1.146976    -2.946317
 C     1.269431     0.549025    -3.776636
 H     0.910137    -0.007766    -4.657269
 H     0.449047     1.231318    -3.487107
 C     2.506434     1.367525    -4.131245
 H     2.271796     2.101804    -4.919276
 H     3.272264     0.692778    -4.555181
 C     3.087355     2.063985    -2.905830
 H     2.383330     2.838628    -2.550226
 H     4.019005     2.591931    -3.167203
 C     3.346064     1.081259    -1.766463
 H     4.096561     0.342485    -2.096121
 H     3.776360     1.609005    -0.906038
 H    -1.215512     1.428771    -1.153374
 H    -0.990927    -0.134549    -1.926889
 C    -3.015930     0.500606    -1.892146
 C    -3.546434    -0.628781    -2.528869
 H    -2.948821    -1.542638    -2.593481
 C    -3.782855     1.670800    -1.863474
 H    -3.372669     2.566823    -1.389435
 C    -4.826949    -0.589058    -3.074872
 H    -5.235404    -1.479132    -3.559827
 C    -5.066443     1.730705    -2.413818
 C    -5.857020     3.007001    -2.387466
 H    -5.488598     3.695057    -1.613112
 H    -5.790754     3.532658    -3.354688
 H    -6.923325     2.815529    -2.195767
 C    -5.587005     0.576026    -3.009763
 H    -6.593504     0.595546    -3.436843
 H    -3.248631    -1.773821    -0.285624
 C    -4.315754    -0.438407     0.999416
 H    -4.425111     0.374194     0.268673
 H    -4.198220     0.031034     1.991794
 C    -5.576544    -1.299282     1.007824
 H    -6.455632    -0.675161     1.237805
 H    -5.737319    -1.698852    -0.009427
 C    -5.463131    -2.451072     1.999404
 H    -6.364799    -3.084059     1.961737
 H    -5.415069    -2.040612     3.024959
 C    -4.214072    -3.284642     1.736795
 H    -4.313803    -3.793823     0.761289
 H    -4.114337    -4.080564     2.492913
 C    -2.953658    -2.427116     1.713043
 H    -2.772621    -2.010977     2.720107
 H    -2.072564    -3.034137     1.457151
 H    -0.302217     1.340308     1.389332
 C    -1.347051     0.524368     3.048726
 H    -0.676501    -0.340204     3.180247
 H    -2.359902     0.170487     3.306845
 C    -0.949371     1.649648     3.998950
 H    -0.992811     1.295748     5.041651
 H     0.102648     1.929397     3.807457
 C    -1.836344     2.874283     3.811168
 H    -1.512752     3.690246     4.477227
 H    -2.870932     2.621752     4.106922
 C    -1.829692     3.338151     2.359795
 H    -0.814210     3.689098     2.100182
 H    -2.501587     4.201773     2.226907
 C    -2.231867     2.215645     1.404516
 H    -3.284510     1.945542     1.577649
 H    -2.172061     2.580352     0.368813
