  90
scf done:    -4572.799721
 C    -0.816800    -2.509064    -2.178306
 H    -0.435228    -3.528868    -2.305917
 H    -1.910473    -2.492937    -2.134506
 C    -0.200208    -1.485399    -3.066929
 H     0.548101    -1.872632    -3.771377
 H    -0.931681    -0.846929    -3.581574
 H     0.417385    -0.682175    -2.475913
Co     0.127493    -1.383526    -0.893278
 C    -1.812302     1.468331    -0.056194
 O    -2.964767    -0.674153    -1.154300
 O    -2.133186    -0.726371     1.294641
 C     2.259439    -0.504047     1.619120
 O     3.175593    -0.541302    -0.807134
 O     1.598816     1.410708    -0.245881
 P     1.682172    -0.239608    -0.084387
 P    -1.592047    -0.334124    -0.240743
 C     0.669614    -2.816661    -0.122672
 O     0.986804    -3.799281     0.393862
 C    -2.429007     2.057249     1.046976
 H    -2.793810     1.408090     1.844442
 C    -1.355797     2.289724    -1.103432
 O    -0.844686     1.655232    -2.175673
 C    -0.051832     2.368629    -3.086574
 H    -0.650768     3.075426    -3.686252
 H     0.396295     1.624428    -3.757559
 H     0.752645     2.915129    -2.567416
 C    -2.574641     3.441655     1.133031
 H    -3.068272     3.888925     1.998368
 C    -1.479472     3.679366    -1.013886
 H    -1.114417     4.321190    -1.815937
 C    -2.090940     4.245710     0.103989
 H    -2.195783     5.331941     0.160734
 C    -4.134449     0.020308    -1.022920
 C    -4.433620     1.022633    -1.946972
 H    -3.716860     1.230184    -2.743339
 C    -5.022755    -0.266185     0.014892
 H    -4.772312    -1.046285     0.734819
 C    -5.619043     1.742436    -1.837106
 H    -5.874877     2.532877    -2.544865
 C    -6.210486     0.452419     0.129083
 H    -6.923215     0.248894     0.930300
 C    -6.492670     1.449469    -0.796371
 F    -7.628447     2.140556    -0.685044
 C    -1.883047    -1.975809     1.797900
 C    -1.070625    -2.093105     2.923190
 H    -0.647355    -1.191488     3.363369
 C    -2.418026    -3.114942     1.194068
 H    -3.035799    -3.010929     0.300557
 C    -0.784768    -3.348100     3.450665
 H    -0.135451    -3.464439     4.319880
 C    -2.134270    -4.372805     1.717125
 H    -2.527070    -5.280948     1.257004
 C    -1.318379    -4.474477     2.837029
 F    -1.039843    -5.680135     3.332878
 C     3.275757    -1.427374     1.874749
 H     3.769606    -1.911800     1.031568
 C     1.611344     0.119243     2.702249
 O     0.603115     0.955237     2.396366
 C     0.073724     1.781438     3.399895
 H    -0.463863     1.196701     4.166447
 H    -0.634299     2.453587     2.903565
 H     0.866167     2.378435     3.880978
 C     3.669015    -1.719164     3.178457
 H     4.464876    -2.443483     3.360502
 C     2.020816    -0.154131     4.010931
 H     1.540286     0.340224     4.855049
 C     3.042832    -1.073585     4.240035
 H     3.347630    -1.285003     5.267828
 C     3.216429    -0.840216    -2.140518
 C     3.280830    -2.173019    -2.548118
 H     3.278599    -2.961338    -1.793816
 C     3.191992     0.185906    -3.085233
 H     3.138102     1.220701    -2.742232
 C     3.334981    -2.481788    -3.904463
 H     3.387073    -3.515281    -4.251330
 C     3.241385    -0.117891    -4.444094
 H     3.231740     0.664144    -5.205563
 C     3.312633    -1.449568    -4.836219
 F     3.360315    -1.743462    -6.134928
 C     2.340750     2.339618     0.431241
 C     3.708432     2.185545     0.666934
 H     4.222319     1.292721     0.310007
 C     1.673161     3.482963     0.874368
 H     0.603677     3.573625     0.679218
 C     4.404506     3.175719     1.358285
 H     5.472705     3.078007     1.559628
 C     2.369259     4.475266     1.556590
 H     1.869303     5.378256     1.911884
 C     3.729086     4.306985     1.795670
 F     4.396888     5.254372     2.456324
