 102
scf done:    -4333.095141
 C     1.600848     2.640394    -1.964067
 H     1.693145     3.730454    -1.881571
 H     2.592906     2.181276    -2.053434
 C     0.614772     2.163905    -2.978051
 H     0.132401     2.960738    -3.561220
 H     1.002375     1.381418    -3.644756
 H    -0.314533     1.642825    -2.491458
Co     0.256747     1.776252    -0.841756
 O     2.340666    -0.465684    -1.738084
 C     3.088252     0.732919     0.628692
 C     1.168136    -1.294579     0.564871
 O    -1.620319     0.290904     1.282776
 C    -3.022982     2.021684    -0.253377
 C    -2.212618    -0.494414    -1.314948
 P    -1.600054     0.881347    -0.293299
 P     1.623591     0.228630    -0.343983
 C     0.065951     3.173215     0.147968
 O     0.030689     4.077184     0.868598
 C     3.633211    -0.893327    -1.836833
 C     4.671021     0.037082    -1.919952
 H     4.425691     1.100572    -1.891741
 C     3.922415    -2.259476    -1.869756
 H     3.111263    -2.985195    -1.815070
 C     6.004820    -0.370619    -1.985126
 C     7.105461     0.649827    -1.966042
 H     6.832500     1.549038    -2.537766
 H     7.310211     0.971220    -0.930602
 H     8.040779     0.247167    -2.380487
 C     5.249005    -2.673293    -1.964696
 H     5.477450    -3.741648    -1.994461
 C     6.283961    -1.741834    -2.010873
 H     7.321592    -2.081077    -2.067192
 C     4.000587    -0.210086     1.137036
 H     3.796996    -1.277623     1.028743
 C     3.376790     2.087302     0.796198
 H     2.667671     2.827680     0.422123
 C     5.170829     0.192415     1.754810
 H     5.891863    -0.533177     2.135372
 C     4.549584     2.509024     1.421278
 H     4.738462     3.576794     1.533114
 C     5.462910     1.558661     1.890361
 O     6.635739     1.858407     2.479661
 C     6.984638     3.204737     2.644237
 H     6.261028     3.741571     3.282406
 H     7.967015     3.217726     3.133071
 H     7.060325     3.730114     1.675876
 C     0.932091    -2.514975    -0.079999
 H     1.050834    -2.582372    -1.162006
 C     0.979798    -1.231421     1.948657
 H     1.139703    -0.286338     2.473275
 C     0.546119    -3.641007     0.636142
 H     0.361324    -4.594111     0.137022
 C     0.583227    -2.347804     2.678764
 H     0.431469    -2.253473     3.753675
 C     0.363932    -3.564302     2.022091
 O    -0.053538    -4.692378     2.636036
 C    -0.361788    -4.636805     4.002697
 H    -1.162800    -3.905090     4.208310
 H    -0.709332    -5.638226     4.286659
 H     0.522889    -4.381855     4.611867
 C    -2.552560    -0.577017     1.779157
 C    -2.481570    -1.929222     1.448372
 H    -1.692694    -2.260914     0.773158
 C    -3.548774    -0.114457     2.641345
 H    -3.592268     0.944768     2.894937
 C    -3.412468    -2.842828     1.951186
 C    -3.344542    -4.282168     1.529728
 H    -3.551370    -4.376855     0.450621
 H    -2.341718    -4.702172     1.701717
 H    -4.077425    -4.897661     2.070569
 C    -4.467914    -1.022780     3.160735
 H    -5.247781    -0.669880     3.840120
 C    -4.406851    -2.373119     2.816644
 H    -5.142754    -3.072372     3.222615
 C    -3.872898     2.200883    -1.355176
 H    -3.757343     1.571714    -2.241057
 C    -3.185221     2.863503     0.850310
 H    -2.509915     2.768206     1.703693
 C    -4.864837     3.169592    -1.340004
 H    -5.532230     3.312961    -2.191822
 C    -4.181146     3.836141     0.881901
 H    -4.276288     4.471356     1.762681
 C    -5.032196     3.993761    -0.218693
 O    -6.022970     4.903067    -0.289277
 C    -6.224755     5.767809     0.793250
 H    -5.337099     6.394689     0.989258
 H    -7.066011     6.418748     0.523503
 H    -6.481270     5.218175     1.716244
 C    -1.319273    -1.135327    -2.186808
 H    -0.299970    -0.750928    -2.282095
 C    -3.516570    -0.995508    -1.212722
 H    -4.235242    -0.514539    -0.545485
 C    -1.707757    -2.244929    -2.919812
 H    -1.018169    -2.748394    -3.599787
 C    -3.919681    -2.112003    -1.938903
 H    -4.940044    -2.478566    -1.826770
 C    -3.009528    -2.750753    -2.793000
 O    -3.298532    -3.840426    -3.524606
 C    -4.575603    -4.408172    -3.423810
 H    -5.363736    -3.706723    -3.748688
 H    -4.583590    -5.282466    -4.086603
 H    -4.796335    -4.738387    -2.393466
