 104
scf done:    -4035.355693
 C    -0.651815    -3.125637    -1.624292
 H    -0.699285    -4.143335    -1.221485
 H    -1.543166    -2.933652    -2.238218
 C     0.649846    -2.739157    -2.247716
 H     1.419113    -3.523388    -2.231489
 H     0.565593    -2.315878    -3.259343
 H     1.186271    -1.871752    -1.672209
Co    -0.012994    -1.744688    -0.399511
 C    -1.893951     0.054911    -2.636205
 O    -3.143514    -1.263282    -0.746450
 O    -1.805339     0.863690    -0.047751
 C     0.576996     0.589272     1.992859
 O     2.648806    -0.801504     1.113699
 O     1.642668     0.917268    -0.549637
 P     1.176886    -0.279508     0.515745
 P    -1.636354    -0.554237    -0.934466
 C    -0.015243    -2.811972     0.964052
 O    -0.090304    -3.487042     1.897127
 H    -2.923317     0.417637    -2.778089
 H    -1.775779    -0.837620    -3.272401
 C    -0.855986     1.122369    -2.964350
 H    -1.149383     2.059141    -2.462055
 H     0.117168     0.839233    -2.524064
 C    -0.655586     1.401752    -4.454572
 H    -1.647925     1.602755    -4.900490
 C     0.205474     2.647090    -4.634115
 H    -0.258321     3.526690    -4.161102
 H     0.364830     2.880023    -5.698380
 H     1.195471     2.505486    -4.169015
 C    -0.041530     0.210406    -5.181872
 H     0.091436     0.422552    -6.253901
 H    -0.664284    -0.693971    -5.103578
 H     0.950632    -0.028528    -4.762568
 C    -3.373685    -2.096735     0.315890
 C    -3.050277    -1.707474     1.615011
 H    -2.619617    -0.718053     1.782389
 C    -3.934966    -3.346355     0.066496
 H    -4.175145    -3.626186    -0.960505
 C    -3.245049    -2.582022     2.686822
 C    -2.788458    -2.197981     4.063093
 H    -2.882284    -1.115412     4.234462
 H    -3.357537    -2.722838     4.843733
 H    -1.725512    -2.463921     4.191307
 C    -4.161878    -4.207465     1.136745
 H    -4.603408    -5.190161     0.953785
 C    -3.812917    -3.835251     2.433564
 H    -3.975733    -4.529863     3.261523
 C    -2.723881     1.866365    -0.170852
 C    -4.042283     1.651903    -0.573026
 H    -4.371386     0.638705    -0.806777
 C    -2.294216     3.151620     0.178303
 H    -1.265550     3.296666     0.511854
 C    -4.941139     2.723651    -0.655698
 C    -6.353609     2.474415    -1.099909
 H    -6.384147     2.113863    -2.140663
 H    -6.834584     1.703021    -0.478576
 H    -6.962270     3.387349    -1.041708
 C    -3.188031     4.213000     0.103962
 H    -2.855122     5.216876     0.378789
 C    -4.501857     4.005991    -0.316424
 H    -5.196415     4.847708    -0.373382
 H     0.045181    -0.201819     2.550418
 H    -0.211749     1.247200     1.598730
 C     1.554074     1.316540     2.904419
 H     2.336454     0.610904     3.225052
 H     2.070381     2.117077     2.352411
 C     0.885303     1.935635     4.134495
 H     0.356614     1.127727     4.675769
 C     1.946160     2.511308     5.065549
 H     2.673375     1.743016     5.371129
 H     1.496606     2.933673     5.977565
 H     2.505370     3.319056     4.564055
 C    -0.139469     3.000114     3.755244
 H    -0.580098     3.464144     4.651110
 H    -0.968830     2.591613     3.158353
 H     0.335992     3.800541     3.162727
 C     3.332031    -1.779778     0.437712
 C     3.785261    -1.561713    -0.862410
 H     3.582237    -0.601963    -1.343291
 C     3.561052    -2.996715     1.078045
 H     3.175831    -3.146224     2.087731
 C     4.472236    -2.567109    -1.553494
 C     4.923522    -2.331287    -2.965819
 H     4.059570    -2.222254    -3.641768
 H     5.515195    -1.406502    -3.048308
 H     5.537286    -3.163136    -3.338079
 C     4.253617    -3.993268     0.398796
 H     4.436357    -4.952470     0.888952
 C     4.703745    -3.784052    -0.905481
 H     5.240629    -4.578920    -1.429393
 C     2.258904     2.100737    -0.242200
 C     3.571028     2.131335     0.227687
 H     4.102681     1.191000     0.383097
 C     1.547650     3.282150    -0.451318
 H     0.532903     3.224425    -0.846904
 C     4.182333     3.351241     0.537227
 C     5.575730     3.373340     1.095122
 H     5.574167     3.087836     2.160143
 H     6.229584     2.660518     0.571141
 H     6.025628     4.373154     1.019941
 C     2.155962     4.497636    -0.151979
 H     1.607472     5.429301    -0.310783
 C     3.458327     4.533655     0.344742
 H     3.924574     5.493880     0.579439
