  98
scf done:    -4032.430251
 C     2.002318    -1.084438    -2.399597
 H     1.881217    -1.112706    -3.489274
 H     2.963007    -0.629761    -2.130702
 C     1.687184    -2.353132    -1.698119
 H     1.234069    -3.131916    -2.324777
 H     2.519689    -2.771203    -1.113623
 H     0.930736    -2.182718    -0.818817
Co     0.435115    -0.582909    -1.335301
 O     2.342996     0.155992     1.278003
 C     2.728056     1.887536    -0.814753
 C     0.519226     2.105622     0.859638
 O    -2.056800     0.244208     0.691414
 C    -2.829708    -1.684485    -1.078769
 C    -1.132027    -2.128006     1.218257
 P    -1.366304    -0.985250    -0.206537
 P     1.461212     0.788686    -0.019506
 C    -0.258955     0.114407    -2.734064
 O    -0.639525     0.680387    -3.670978
 C     3.008814    -1.024783     1.127403
 C     4.190510    -1.076151     0.388107
 H     4.559906    -0.161033    -0.081901
 C     2.506664    -2.173702     1.741950
 H     1.576189    -2.117060     2.307219
 C     4.885231    -2.281913     0.234798
 C     6.136303    -2.326992    -0.593454
 H     6.866296    -1.575304    -0.255537
 H     6.616689    -3.314134    -0.546824
 H     5.914970    -2.108228    -1.650653
 C     3.199429    -3.371609     1.601402
 H     2.807896    -4.274600     2.076062
 C     4.375229    -3.429872     0.851747
 H     4.905957    -4.379198     0.742760
 C     2.660872     2.008003    -2.207958
 H     1.901742     1.439097    -2.744770
 C     3.694412     2.639781    -0.102837
 C     3.811308     2.650367     1.393223
 H     4.096991     1.668039     1.793543
 H     2.849853     2.912947     1.858004
 H     4.558117     3.390652     1.710980
 C     3.530350     2.832618    -2.916346
 H     3.446304     2.907778    -4.002830
 C     4.573342     3.444099    -0.839001
 H     5.327107     4.020946    -0.295861
 C     4.503625     3.545663    -2.225959
 H     5.205010     4.190596    -2.761148
 C    -0.024193     3.043360    -0.033223
 H     0.115912     2.899795    -1.108275
 C     0.311690     2.267812     2.245984
 C     0.831812     1.340201     3.309329
 H     1.912457     1.475994     3.465785
 H     0.697803     0.285549     3.049793
 H     0.322399     1.540600     4.262818
 C    -0.720212     4.159898     0.409473
 H    -1.129671     4.869497    -0.311682
 C    -0.400806     3.402123     2.667142
 H    -0.557471     3.542818     3.740494
 C    -0.898719     4.346227     1.776694
 H    -1.438498     5.219323     2.151157
 C    -2.758372     1.312867     0.232302
 C    -3.350562     2.111075     1.211056
 H    -3.202512     1.838623     2.258071
 C    -2.913412     1.623616    -1.120119
 H    -2.467392     1.003834    -1.895448
 C    -4.085355     3.245790     0.863407
 C    -4.692782     4.102351     1.935620
 H    -5.227056     4.963378     1.510536
 H    -5.406776     3.529963     2.548787
 H    -3.917127     4.485648     2.617885
 C    -3.646235     2.755100    -1.467670
 H    -3.762504     3.005361    -2.524756
 C    -4.224733     3.563785    -0.492218
 H    -4.794784     4.449557    -0.783562
 C    -2.631109    -2.052299    -2.414341
 H    -1.646003    -1.881155    -2.855328
 C    -4.087433    -1.904810    -0.470487
 C    -4.407326    -1.534576     0.947713
 H    -4.532314    -0.445521     1.051490
 H    -3.613608    -1.835083     1.644015
 H    -5.345172    -2.012058     1.262910
 C    -3.645186    -2.631236    -3.169119
 H    -3.463758    -2.908120    -4.209904
 C    -5.093536    -2.488734    -1.250810
 H    -6.070738    -2.664234    -0.792795
 C    -4.886739    -2.848716    -2.579690
 H    -5.699797    -3.301396    -3.152650
 C    -1.088310    -1.584758     2.508830
 H    -1.291797    -0.522320     2.636616
 C    -0.911310    -3.509172     1.034608
 C    -1.034433    -4.191944    -0.296557
 H    -0.483719    -5.142898    -0.298478
 H    -0.658275    -3.576864    -1.122305
 H    -2.090617    -4.407756    -0.524628
 C    -0.802275    -2.378320     3.615589
 H    -0.767638    -1.929974     4.611172
 C    -0.616822    -4.285831     2.162508
 H    -0.438612    -5.356036     2.025816
 C    -0.554314    -3.737380     3.440003
 H    -0.318659    -4.373066     4.296732
