  98
scf done:    -3881.018089
 C     1.826088    -0.909025     2.339191
 H     1.761953    -1.756044     3.032802
 H     2.851586    -0.764490     1.982547
 C     1.131767     0.329840     2.794389
 H     0.663241     0.261055     3.786548
 H     1.750111     1.236443     2.724751
 H     0.226053     0.622599     2.106745
Co     0.391358    -0.752813     1.029619
 C     1.197267     1.289481    -1.677222
 O     3.177487     0.387623    -0.043784
 O     1.931807    -1.272452    -1.604863
 C    -2.205854    -1.081540    -1.171095
 O    -2.773878    -0.193899     1.376070
 O    -1.554784     1.389510    -0.090295
 P    -1.527765    -0.200090     0.293625
 P     1.660467    -0.052643    -0.515994
 C     0.180382    -2.443858     1.101675
 O     0.164120    -3.602694     1.083502
 C     0.839441     1.041980    -3.001804
 H     0.962901     0.032138    -3.398193
 C     0.974801     2.573691    -1.144041
 O     1.313002     2.728786     0.152121
 C     0.855334     3.854372     0.849476
 H     1.327747     4.783776     0.486635
 H     1.133421     3.704904     1.900540
 H    -0.240724     3.945935     0.779962
 C     0.303695     2.050986    -3.804437
 H     0.028940     1.839923    -4.839894
 C     0.446364     3.591118    -1.940276
 H     0.284369     4.589724    -1.533138
 C     0.117623     3.321748    -3.270657
 H    -0.297812     4.121379    -3.889046
 C     4.087033     1.274603    -0.662865
 H     4.912869     0.676447    -1.091562
 H     3.600567     1.814934    -1.492638
 C     4.627693     2.250073     0.361680
 H     5.319420     2.940909    -0.152860
 H     3.785286     2.858300     0.729311
 C     5.331122     1.579028     1.532462
 H     6.179341     0.980805     1.153847
 H     4.635269     0.858774     1.992640
 C     5.821590     2.566211     2.578440
 H     6.538751     3.285844     2.150680
 H     4.984712     3.148498     2.997467
 H     6.321619     2.056440     3.415887
 C     3.116872    -1.445122    -2.359168
 H     2.819184    -1.989492    -3.271747
 H     3.525143    -0.471652    -2.683667
 C     4.152849    -2.243577    -1.589163
 H     5.036880    -2.379382    -2.238008
 H     4.483490    -1.648860    -0.721347
 C     3.637418    -3.592865    -1.108311
 H     3.341281    -4.202630    -1.980982
 H     2.716349    -3.431296    -0.526043
 C     4.651173    -4.350497    -0.267686
 H     5.579531    -4.548075    -0.828740
 H     4.925545    -3.775533     0.631517
 H     4.251942    -5.318993     0.069294
 C    -1.282393    -1.859308    -1.878370
 H    -0.252848    -1.909496    -1.517381
 C    -3.537906    -1.034111    -1.643099
 O    -4.418882    -0.289072    -0.944261
 C    -5.750010    -0.204062    -1.366959
 H    -5.832373     0.229595    -2.378848
 H    -6.258601     0.457840    -0.654529
 H    -6.246689    -1.189833    -1.358863
 C    -1.639823    -2.563197    -3.026139
 H    -0.892967    -3.159292    -3.553810
 C    -3.901449    -1.746326    -2.791272
 H    -4.927637    -1.716150    -3.157114
 C    -2.952629    -2.502561    -3.477535
 H    -3.256106    -3.051664    -4.372460
 C    -3.544910    -1.305024     1.791519
 H    -4.384149    -0.862886     2.353528
 H    -3.975878    -1.815422     0.913637
 C    -2.804486    -2.303182     2.662065
 H    -3.555140    -3.015226     3.049813
 H    -2.118270    -2.901339     2.042947
 C    -2.028522    -1.674506     3.807522
 H    -2.715290    -1.096309     4.451587
 H    -1.323154    -0.950469     3.371507
 C    -1.259691    -2.694979     4.629518
 H    -1.932719    -3.433770     5.094788
 H    -0.549723    -3.249240     3.995275
 H    -0.683689    -2.215381     5.435939
 C    -2.597092     2.143827    -0.686220
 H    -2.094328     3.032334    -1.100860
 H    -3.027479     1.590282    -1.535066
 C    -3.675879     2.552423     0.298694
 H    -4.388905     3.204560    -0.238186
 H    -4.228650     1.653839     0.609038
 C    -3.140884     3.263844     1.531908
 H    -2.611651     4.185473     1.226819
 H    -2.386538     2.613439     2.002839
 C    -4.225526     3.603238     2.540347
 H    -4.994273     4.261382     2.103104
 H    -4.733485     2.690133     2.890189
 H    -3.815345     4.113421     3.425286
