  88
scf done:    -3426.093770
 C     1.868042    -1.180599    -2.614455
 H     1.838064    -1.053382    -3.702703
 H     2.886672    -0.988346    -2.252891
 C     1.249235    -2.439805    -2.102412
 H     0.824089    -3.095434    -2.875388
 H     1.896967    -3.029533    -1.436057
 H     0.329323    -2.230413    -1.405467
Co     0.344744    -0.493177    -1.613219
 C     2.845774    -0.469362     0.721859
 O     2.549432     1.647995    -1.006470
 O     0.879852     1.365995     0.923764
 C    -2.152159     1.238563    -0.179980
 O    -2.784136    -1.186777    -0.932728
 O    -1.164104    -1.089015     1.046395
 P    -1.412501    -0.408531    -0.432238
 P     1.624447     0.490435    -0.275477
 C    -0.264005     0.424163    -2.941779
 O    -0.584477     1.159243    -3.774678
 H     3.450753     0.188864     1.368109
 H     3.540647    -0.947191     0.012284
 C     2.111898    -1.509578     1.559131
 H     1.380197    -0.992133     2.199374
 H     1.496006    -2.141222     0.896423
 C     3.006189    -2.398497     2.423074
 H     3.621837    -1.737142     3.062834
 C     2.149910    -3.267889     3.336973
 H     1.492598    -2.654510     3.973196
 H     2.768287    -3.896630     3.996308
 H     1.505466    -3.938261     2.743974
 C     3.951240    -3.254668     1.587589
 H     4.578732    -3.896624     2.225117
 H     4.627090    -2.645215     0.968787
 H     3.381266    -3.913401     0.910304
 C     3.927273     1.966657    -0.859460
 H     4.277669     1.673291     0.147084
 C     4.057681     3.471272    -0.998611
 H     3.477200     3.989688    -0.222508
 H     3.676074     3.790103    -1.980197
 H     5.109650     3.781948    -0.912773
 C     4.747880     1.222572    -1.897044
 H     4.679679     0.134192    -1.758124
 H     4.379226     1.458246    -2.906550
 H     5.808686     1.507984    -1.831751
 C     1.537639     2.352601     1.709819
 H     2.617830     2.347827     1.478580
 C     1.354645     2.009439     3.175428
 H     1.789106     1.025692     3.405518
 H     0.283826     1.975978     3.426009
 H     1.838222     2.761663     3.816890
 C     0.975425     3.712696     1.343288
 H     1.085837     3.884947     0.263539
 H    -0.095452     3.763281     1.594016
 H     1.494375     4.516755     1.887172
 H    -2.070714     1.706615    -1.176396
 H    -1.417377     1.758104     0.453687
 C    -3.582535     1.353333     0.326304
 H    -4.221801     0.678412    -0.263620
 H    -3.653332     1.008990     1.372056
 C    -4.148437     2.774149     0.252999
 H    -4.091558     3.097608    -0.803508
 C    -5.615464     2.778859     0.666450
 H    -6.208922     2.086770     0.048996
 H    -6.058695     3.782261     0.570590
 H    -5.727016     2.465569     1.718304
 C    -3.342580     3.762912     1.088095
 H    -3.782381     4.771383     1.045947
 H    -2.301894     3.843027     0.740761
 H    -3.321172     3.453820     2.147569
 C    -2.715184    -2.529586    -1.412939
 H    -1.837655    -3.026269    -0.954735
 C    -2.554609    -2.529692    -2.920043
 H    -1.634631    -1.994983    -3.195941
 H    -3.407240    -2.017543    -3.391481
 H    -2.501987    -3.558014    -3.308821
 C    -3.971617    -3.236129    -0.947277
 H    -4.050693    -3.215590     0.149303
 H    -4.860639    -2.738437    -1.364036
 H    -3.974129    -4.285400    -1.278308
 C    -2.146285    -1.278657     2.061348
 H    -3.149272    -1.123751     1.626830
 C    -1.904993    -0.277900     3.175351
 H    -1.945115     0.752227     2.794456
 H    -0.908674    -0.436175     3.615172
 H    -2.659367    -0.384899     3.969567
 C    -2.035986    -2.714170     2.537034
 H    -2.214936    -3.412695     1.706993
 H    -1.026415    -2.905196     2.931778
 H    -2.767992    -2.923270     3.331649
