  92
scf done:    -3878.210595
 C     1.993171     0.272525    -3.073789
 H     2.217457     1.121387    -3.730204
 H     2.924870    -0.194748    -2.730219
 C     0.972704    -0.683743    -3.597375
 H     0.534235    -0.398254    -4.562650
 H     1.307916    -1.730150    -3.620330
 H     0.035585    -0.772315    -2.900602
Co     0.531092     0.496136    -1.796171
 C     2.844144     1.272943     0.503967
 O     0.943599    -0.508959     1.178526
 O     2.951146    -1.179804    -0.327764
 C    -1.735279     1.070080     0.736618
 O    -2.549046     0.716683    -1.853024
 O    -1.777292    -1.342684    -0.501571
 P    -1.324804     0.230995    -0.829714
 P     1.755120    -0.002259    -0.207106
 C     0.360410     2.177334    -2.176422
 O     0.369753     3.319824    -2.341240
 H     3.425499     0.828870     1.328268
 H     2.147022     2.001919     0.948412
 C     3.743824     1.942158    -0.523654
 H     4.513712     1.220335    -0.842419
 H     3.153577     2.179130    -1.425320
 C     4.417035     3.226456    -0.033166
 H     4.968422     2.990327     0.896683
 C     5.425194     3.712014    -1.068403
 H     6.184069     2.943393    -1.282652
 H     5.948736     4.618404    -0.727060
 H     4.920485     3.955861    -2.018046
 C     3.397947     4.317932     0.281083
 H     3.897328     5.254036     0.574540
 H     2.725643     4.037977     1.106691
 H     2.769338     4.530297    -0.599972
 C     1.498459    -0.750430     2.403671
 C     1.293760     0.171187     3.431842
 H     0.733925     1.084734     3.220712
 C     2.204300    -1.931272     2.642393
 H     2.349480    -2.643634     1.828679
 C     1.799503    -0.089546     4.703005
 H     1.635917     0.632142     5.506879
 C     2.708464    -2.180163     3.917325
 H     3.261583    -3.103828     4.103829
 C     2.509730    -1.264117     4.950038
 H     2.906195    -1.466459     5.947338
 C     2.742544    -2.373660    -0.948564
 C     3.867764    -3.034780    -1.448189
 H     4.844111    -2.560266    -1.333137
 C     1.474760    -2.951064    -1.076365
 H     0.589827    -2.428112    -0.711704
 C     3.724458    -4.267856    -2.076363
 H     4.608902    -4.778616    -2.464863
 C     1.345416    -4.183959    -1.715568
 H     0.350742    -4.625056    -1.816109
 C     2.462631    -4.848655    -2.216318
 H     2.353002    -5.815464    -2.712054
 H    -1.254895     0.478764     1.530993
 H    -2.821706     0.996951     0.893021
 C    -1.242079     2.508501     0.764921
 H    -0.151200     2.506449     0.608769
 H    -1.656011     3.073117    -0.089825
 C    -1.559370     3.254429     2.061924
 H    -1.178105     2.638721     2.899257
 C    -0.830038     4.592432     2.088955
 H     0.258083     4.460214     1.981842
 H    -1.015115     5.134093     3.029318
 H    -1.165382     5.236772     1.259576
 C    -3.058231     3.443059     2.268573
 H    -3.265644     3.974581     3.209969
 H    -3.597975     2.484671     2.306917
 H    -3.490025     4.041834     1.448578
 C    -3.881690     0.495132    -1.659527
 C    -4.660901     1.438125    -0.986433
 H    -4.192591     2.352563    -0.617830
 C    -4.463248    -0.666957    -2.170479
 H    -3.829118    -1.386064    -2.690932
 C    -6.022007     1.200165    -0.802686
 H    -6.629941     1.936692    -0.271888
 C    -5.825063    -0.892227    -1.986984
 H    -6.277748    -1.804725    -2.381938
 C    -6.607237     0.034465    -1.296440
 H    -7.673950    -0.148312    -1.150214
 C    -2.266680    -1.832949     0.687241
 C    -3.604410    -1.657533     1.045662
 H    -4.277982    -1.115446     0.382041
 C    -1.404224    -2.546553     1.520517
 H    -0.363401    -2.670536     1.225908
 C    -4.066429    -2.184706     2.250466
 H    -5.114081    -2.042727     2.526447
 C    -1.876130    -3.067569     2.722235
 H    -1.189344    -3.613383     3.373397
 C    -3.207523    -2.886306     3.094900
 H    -3.575036    -3.292682     4.039731
