  98
scf done:    -4429.144750
 C    -0.547390     2.174638    -2.819789
 H    -0.466008     2.019442    -3.902872
 H    -1.522401     2.612307    -2.570783
 C     0.623004     2.853922    -2.197034
 H     1.482743     3.004697    -2.862227
 H     0.389471     3.793370    -1.676949
 H     1.056562     2.244246    -1.300847
Co     0.139962     0.785598    -1.635636
 C    -1.384304     2.083845     1.220724
 C    -3.226187     1.171674    -0.845108
 C    -1.773589    -0.715266     0.746820
 C     1.235806    -1.958301     0.144820
 C     3.115323    -0.787782    -1.595981
 C     2.488937     0.652172     0.872734
 P     1.666697    -0.287015    -0.512284
 P    -1.506102     0.871135    -0.166157
 C     0.165044    -0.272979    -2.965097
 O     0.124840    -0.980568    -3.886304
 C    -1.022824     1.707792     2.518416
 H    -0.912878     0.648988     2.760084
 C    -1.512687     3.462182     0.949043
 O    -1.830104     3.782481    -0.321976
 C    -1.910481     5.128937    -0.701250
 H    -2.722072     5.654869    -0.169579
 H    -2.122932     5.135669    -1.777588
 H    -0.958570     5.658150    -0.521894
 C    -0.811155     2.649441     3.526630
 H    -0.534664     2.321105     4.530436
 C    -1.316983     4.412373     1.955467
 H    -1.433930     5.475266     1.742795
 C    -0.963855     4.002255     3.241609
 H    -0.809421     4.752368     4.020550
 H    -3.907971     1.419716    -0.020744
 H    -3.147230     2.058016    -1.487900
 C    -3.722670    -0.022436    -1.606022
 C    -3.137129    -0.384282    -2.827208
 H    -2.348193     0.241087    -3.243932
 C    -4.747365    -0.831054    -1.098993
 H    -5.226413    -0.566991    -0.153601
 C    -3.533430    -1.531439    -3.508105
 H    -3.065050    -1.820208    -4.450606
 C    -5.163864    -1.977153    -1.772532
 H    -5.960439    -2.611294    -1.379379
 C    -4.541389    -2.319121    -2.965947
 F    -4.926049    -3.424389    -3.608624
 H    -1.708333    -1.467225    -0.050680
 H    -0.861998    -0.889201     1.342657
 C    -3.009233    -1.004667     1.558566
 C    -3.449871    -2.335973     1.608280
 H    -2.889064    -3.099552     1.062606
 C    -3.753422    -0.047517     2.257896
 H    -3.447855     0.998579     2.246479
 C    -4.588491    -2.705942     2.315027
 H    -4.933282    -3.741150     2.345587
 C    -4.901545    -0.397902     2.967980
 H    -5.486221     0.349633     3.507227
 C    -5.307324    -1.724636     2.987428
 F    -6.405382    -2.065132     3.662585
 C     0.358052    -2.699910    -0.655411
 H    -0.060009    -2.228867    -1.547280
 C     1.777495    -2.585350     1.286965
 O     2.662445    -1.885267     2.020484
 C     3.356354    -2.513597     3.063904
 H     2.682438    -2.809559     3.886456
 H     4.077166    -1.777868     3.442115
 H     3.907574    -3.399049     2.706033
 C     0.002204    -4.010754    -0.348384
 H    -0.681298    -4.557560    -1.000835
 C     1.399679    -3.893689     1.616203
 H     1.806906    -4.373215     2.506051
 C     0.518764    -4.599571     0.801659
 H     0.242694    -5.621617     1.072293
 H     2.643115    -1.308239    -2.442497
 H     3.535047     0.144578    -2.001404
 C     4.144308    -1.649859    -0.936491
 C     5.252597    -1.107304    -0.272259
 H     5.423660    -0.028661    -0.290088
 C     3.983713    -3.042902    -0.911848
 H     3.134778    -3.493862    -1.430873
 C     6.155455    -1.913129     0.417188
 H     7.019280    -1.492273     0.934855
 C     4.874293    -3.864309    -0.227512
 H     4.746797    -4.948020    -0.203218
 C     5.946401    -3.285715     0.439617
 F     6.792757    -4.065050     1.115565
 H     1.812429     0.575175     1.735440
 H     3.412120     0.126884     1.149068
 C     2.744398     2.094649     0.542715
 C     3.748064     2.483232    -0.355894
 H     4.385680     1.730518    -0.821647
 C     1.966961     3.103394     1.124347
 H     1.185932     2.835428     1.836244
 C     3.958316     3.820250    -0.682528
 H     4.736604     4.121438    -1.385860
 C     2.165309     4.446102     0.815238
 H     1.556013     5.226317     1.274403
 C     3.155870     4.789392    -0.094303
 F     3.344998     6.072149    -0.404685
