  98
scf done:    -4032.438491
 C     1.487389    -3.214412     0.760975
 H     1.520793    -4.205709     0.292786
 H     2.504019    -2.847009     0.944670
 C     0.572171    -3.097109     1.933662
 H     0.075766    -4.033167     2.225168
 H     1.027375    -2.614706     2.809382
 H    -0.350701    -2.406723     1.718878
Co     0.140307    -1.967171     0.096737
 O     2.381650    -0.268831     1.601499
 C     2.955015    -0.545433    -1.076603
 C     1.144129     1.380225    -0.168818
 O    -1.723423     0.212839    -1.297270
 C    -3.161544    -1.898291    -0.383951
 C    -2.215314     0.094687     1.426281
 P    -1.685732    -0.881678    -0.023959
 P     1.557759    -0.387882     0.105264
 C    -0.146599    -2.923495    -1.308685
 O    -0.245614    -3.521153    -2.292619
 C     3.700522     0.040236     1.774494
 C     4.683520    -0.900255     1.465321
 H     4.376535    -1.871881     1.072895
 C     4.070626     1.292298     2.273278
 H     3.302303     2.023595     2.522249
 C     6.041438    -0.599840     1.600726
 C     7.074978    -1.607795     1.189598
 H     6.889730    -2.586589     1.658192
 H     7.050652    -1.762279     0.098419
 H     8.088682    -1.283891     1.463957
 C     5.421011     1.590920     2.431936
 H     5.712781     2.569136     2.822257
 C     6.401309     0.660626     2.089548
 H     7.458519     0.912998     2.205997
 C     3.151966    -1.748356    -1.760996
 H     2.422112    -2.551589    -1.651798
 C     3.882879     0.491087    -1.232124
 H     3.730116     1.436313    -0.704856
 C     4.272896    -1.907336    -2.571669
 H     4.422110    -2.844090    -3.114059
 C     5.025156     0.337420    -2.021885
 C     6.037992     1.442038    -2.105123
 H     5.559937     2.407341    -2.331554
 H     6.560343     1.558053    -1.141296
 H     6.793307     1.243724    -2.878600
 C     5.205168    -0.878093    -2.691830
 H     6.088451    -1.016441    -3.322142
 C     1.045822     2.289719     0.887330
 H     1.216510     1.951354     1.909587
 C     0.880113     1.816323    -1.472097
 H     0.926706     1.099662    -2.296730
 C     0.750876     3.627772     0.626923
 H     0.699230     4.342393     1.452213
 C     0.553147     3.146806    -1.745081
 C     0.191135     3.575621    -3.135540
 H     0.712886     2.974298    -3.893709
 H    -0.892302     3.444597    -3.298803
 H     0.426711     4.635622    -3.309476
 C     0.521700     4.054575    -0.678102
 H     0.295513     5.106254    -0.875582
 C    -2.616959     1.240313    -1.428873
 C    -2.447672     2.399722    -0.674170
 H    -1.615181     2.452266     0.027892
 C    -3.674152     1.134232    -2.334533
 H    -3.793331     0.222370    -2.919569
 C    -3.342225     3.467464    -0.792008
 C    -3.153800     4.691536     0.055538
 H    -3.109220     4.425245     1.123682
 H    -2.204336     5.195340    -0.184885
 H    -3.969877     5.413816    -0.086589
 C    -4.560879     2.200213    -2.464651
 H    -5.390976     2.126289    -3.171392
 C    -4.403053     3.354350    -1.697587
 H    -5.112259     4.179587    -1.803060
 C    -3.404410    -2.291924    -1.704617
 H    -2.760345    -1.928019    -2.507903
 C    -3.966574    -2.406108     0.641114
 H    -3.773616    -2.110844     1.676288
 C    -4.458609    -3.155427    -1.985988
 H    -4.652931    -3.455375    -3.018576
 C    -5.022749    -3.282890     0.372674
 C    -5.861486    -3.839437     1.486661
 H    -5.511875    -4.844151     1.777350
 H    -5.815120    -3.203782     2.382410
 H    -6.915833    -3.936361     1.188176
 C    -5.262557    -3.643408    -0.958227
 H    -6.089165    -4.320575    -1.191089
 C    -1.279417     0.353713     2.433437
 H    -0.281941    -0.088624     2.366340
 C    -3.493346     0.659398     1.511924
 H    -4.228821     0.454824     0.729503
 C    -1.623407     1.176693     3.502026
 H    -0.894976     1.376668     4.291493
 C    -3.845980     1.504189     2.568428
 C    -5.207284     2.135086     2.602161
 H    -5.374945     2.743867     1.699084
 H    -6.000661     1.371486     2.626141
 H    -5.333455     2.783054     3.480703
 C    -2.891244     1.753347     3.561478
 H    -3.149020     2.409826     4.397496
