  58
scf done:    -3108.939619
 C    -4.270187     1.170329    -0.214253
 H    -5.217466     0.813807     0.207402
 H    -4.144222     2.236475     0.010540
 C    -4.044749     0.800024    -1.645629
 H    -4.853996     0.213366    -2.102153
 H    -3.793147     1.646741    -2.301583
 H    -3.109341     0.108566    -1.784930
Co    -2.743999    -0.032989    -0.080744
 O     0.063427     1.479434    -0.604578
 C    -1.733800     3.281089     0.311429
 C    -0.663716     1.360828     2.065686
 O     0.064775    -1.409691     0.473035
 C    -1.699766    -3.253269    -0.448231
 C    -0.534941    -1.366851    -2.220459
 P    -1.270680    -1.483009    -0.553429
 P    -1.334132     1.493624     0.371393
 C    -3.523305    -0.976260     1.116361
 O    -4.006850    -1.558962     1.991793
 C     1.215871     2.162279    -0.360117
 C     2.169763     1.638279     0.514671
 H     1.949108     0.701076     1.027513
 C     1.476509     3.351330    -1.047378
 H     0.727427     3.739319    -1.740149
 C     3.396791     2.280352     0.710842
 C     4.406689     1.692542     1.653860
 H     4.505953     0.606507     1.503364
 H     5.396814     2.151419     1.523661
 H     4.103594     1.845499     2.702708
 C     2.693542     3.998230    -0.851685
 H     2.905318     4.924493    -1.391611
 C     3.647419     3.469726     0.017429
 H     4.602532     3.983076     0.155059
 H    -2.117895     3.545798    -0.684650
 H    -2.514054     3.499567     1.054671
 H    -0.846434     3.892896     0.532624
 H    -1.519358     1.483974     2.746229
 H    -0.260096     0.348370     2.198494
 H     0.102860     2.115630     2.295738
 C     1.223871    -2.112889     0.311473
 C     2.235918    -1.604538    -0.503690
 H     2.059503    -0.667117    -1.033628
 C     1.422481    -3.296580     1.025902
 H     0.626811    -3.668151     1.674055
 C     3.465899    -2.261672    -0.614327
 C     4.543065    -1.692278    -1.491708
 H     4.309779    -1.850479    -2.557496
 H     4.644035    -0.606342    -1.342168
 H     5.516896    -2.160596    -1.291612
 C     2.642108    -3.958434     0.913600
 H     2.808511    -4.881273     1.474634
 C     3.655733    -3.447860     0.103373
 H     4.611896    -3.972714     0.032972
 H    -2.072935    -3.468979     0.563177
 H    -2.514620    -3.450399    -1.160636
 H    -0.844264    -3.905536    -0.679317
 H    -1.341207    -1.539657    -2.949584
 H    -0.150848    -0.345665    -2.350419
 H     0.267002    -2.100723    -2.387183
