 100
scf done:    -4131.323521
 C    -0.644257     0.764307    -3.217848
 H    -0.363584     0.413100    -4.217817
 H    -1.737114     0.870462    -3.160344
 C     0.125328     1.943232    -2.727394
 H     0.971072     2.242886    -3.359007
 H    -0.485205     2.829720    -2.497487
 H     0.593141     1.750814    -1.673489
Co     0.323889     0.014542    -1.701710
 C    -2.939647     0.762450    -0.672095
 C    -2.266971    -1.875515    -1.589994
 C    -1.697188    -1.120053     1.114904
 C     1.996732    -1.606544     0.861178
 C     3.590395    -0.465756    -1.280631
 C     2.483170     1.203756     0.805983
 P     1.996172    -0.197318    -0.329682
 P    -1.526048    -0.436936    -0.633144
 C     0.866536    -1.260793    -2.690890
 O     1.158876    -2.172905    -3.347175
 H    -3.793559     0.347419    -0.112248
 H    -3.260110     0.813445    -1.724262
 C    -2.586552     2.155130    -0.165813
 H    -2.112278     2.082622     0.823693
 H    -1.826232     2.603071    -0.827070
 C    -3.783951     3.100099    -0.048596
 H    -4.530083     2.599235     0.597200
 C    -3.373287     4.395271     0.641776
 H    -2.927157     4.198876     1.629669
 H    -4.234265     5.065546     0.788492
 H    -2.631313     4.942941     0.036600
 C    -4.437550     3.379437    -1.397007
 H    -5.291515     4.066453    -1.292284
 H    -4.811791     2.460801    -1.873611
 H    -3.717359     3.846151    -2.090316
 H    -2.295110    -1.511099    -2.627755
 H    -1.499827    -2.664746    -1.568473
 C    -3.595308    -2.404572    -1.154171
 C    -3.685278    -3.497536    -0.279928
 H    -2.769552    -3.997832     0.047201
 C    -4.792761    -1.812918    -1.581652
 H    -4.757447    -0.978100    -2.285291
 C    -4.913741    -3.972875     0.172870
 H    -4.983966    -4.825811     0.850229
 C    -6.030192    -2.272589    -1.140455
 H    -6.963210    -1.815697    -1.475431
 C    -6.075192    -3.346479    -0.259548
 F    -7.256321    -3.790734     0.168692
 H    -2.554590    -1.808476     1.113618
 H    -0.794961    -1.714969     1.315719
 C    -1.906775    -0.071289     2.158041
 C    -0.835127     0.654861     2.689265
 H     0.180367     0.385522     2.398590
 C    -3.200647     0.274566     2.571484
 H    -4.053870    -0.295744     2.195354
 C    -1.035453     1.726280     3.555636
 H    -0.201353     2.302600     3.960387
 C    -3.424245     1.344391     3.433328
 H    -4.431073     1.627896     3.745132
 C    -2.336146     2.071636     3.900506
 F    -2.544332     3.115655     4.702009
 H     1.327474    -1.314917     1.687969
 H     3.002734    -1.711329     1.297482
 C     1.497480    -2.899853     0.234528
 H     0.526847    -2.689756    -0.243186
 H     2.156751    -3.207297    -0.596928
 C     1.342503    -4.066898     1.210495
 H     0.729575    -3.707193     2.059682
 C     0.590686    -5.213285     0.544571
 H    -0.399258    -4.888735     0.186596
 H     0.440590    -6.055297     1.237607
 H     1.147081    -5.592935    -0.328204
 C     2.681016    -4.539722     1.767058
 H     2.544222    -5.355002     2.493957
 H     3.230049    -3.732162     2.274391
 H     3.323828    -4.923784     0.956910
 H     3.360590    -1.270743    -1.994085
 H     3.709077     0.446819    -1.885431
 C     4.822703    -0.782881    -0.494554
 C     5.708868     0.215344    -0.067004
 H     5.531704     1.254861    -0.352546
 C     5.117053    -2.108070    -0.140137
 H     4.459621    -2.911578    -0.480418
 C     6.831079    -0.084301     0.702062
 H     7.523116     0.692828     1.031190
 C     6.231443    -2.428340     0.628760
 H     6.458972    -3.459928     0.903514
 C     7.075197    -1.406746     1.047854
 F     8.143628    -1.703018     1.785359
 H     1.918677     1.061876     1.737708
 H     3.547355     1.084107     1.062074
 C     2.192003     2.556179     0.233203
 C     0.972579     3.189637     0.507074
 H     0.251291     2.706043     1.168418
 C     3.083916     3.194624    -0.636827
 H     4.043443     2.727932    -0.869467
 C     0.651646     4.419542    -0.058843
 H    -0.296558     4.914557     0.156604
 C     2.776754     4.421959    -1.219385
 H     3.469157     4.923041    -1.898015
 C     1.558774     5.020085    -0.922419
 F     1.256376     6.193797    -1.474855
