  82
scf done:    -3423.167883
 C    -1.640811    -2.893313    -0.185841
 H    -1.407791    -3.933291     0.070111
 H    -2.652351    -2.630848     0.149433
 C    -1.305482    -2.486368    -1.567168
 H    -0.836195    -3.259623    -2.189618
 H    -2.123268    -1.995064    -2.115031
 H    -0.523901    -1.589444    -1.588813
Co    -0.183383    -1.612715     0.048809
 O    -2.409465     0.509503    -0.723734
 C    -2.867036    -0.495377     1.830470
 C    -0.997762     1.664197     1.347520
 O     2.206955     0.475599     0.375764
 C     3.193449    -2.013256    -0.303769
 C     1.957737    -0.223882    -2.279424
 P     1.733411    -0.863514    -0.543702
 P    -1.502578     0.020080     0.638126
 C     0.457081    -2.501384     1.357609
 O     0.854667    -3.058204     2.292755
 C    -3.651517     1.061543    -0.748406
 C    -4.759551     0.230030    -0.921887
 H    -4.590421    -0.845581    -1.020262
 C    -3.827980     2.445745    -0.651069
 H    -2.957871     3.092740    -0.534832
 C    -6.056204     0.752360    -0.966852
 C    -7.233205    -0.157790    -1.168356
 H    -7.141857    -1.073433    -0.565084
 H    -8.176412     0.337631    -0.898511
 H    -7.312249    -0.470656    -2.222681
 C    -5.115672     2.971682    -0.696346
 H    -5.258953     4.051884    -0.612891
 C    -6.222135     2.136223    -0.843324
 H    -7.227916     2.563144    -0.869654
 H    -3.549607    -1.046593     1.160333
 C    -2.361956    -1.485201     2.877322
 H    -3.201252    -1.806356     3.515148
 H    -1.917547    -2.376262     2.419601
 H    -1.601737    -1.039713     3.536394
 C    -3.673350     0.619171     2.491106
 H    -4.076982     1.346387     1.774269
 H    -4.529567     0.178208     3.026923
 H    -3.075443     1.164857     3.237420
 H    -1.934244     2.171799     1.629443
 C    -0.155701     1.428690     2.598813
 H     0.194575     2.390818     3.005914
 H    -0.716452     0.917429     3.394421
 H     0.729604     0.822658     2.354406
 C    -0.263566     2.539477     0.342683
 H    -0.807624     2.622103    -0.608741
 H    -0.135178     3.553395     0.755275
 H     0.732021     2.128100     0.137678
 C     3.437245     1.032139     0.542321
 C     3.910803     1.988396    -0.357845
 H     3.288672     2.265361    -1.211545
 C     4.194326     0.687256     1.664603
 H     3.794455    -0.041558     2.372051
 C     5.162974     2.585442    -0.175823
 C     5.651813     3.629875    -1.137252
 H     5.356311     3.397578    -2.170992
 H     5.227247     4.617512    -0.891504
 H     6.746366     3.725441    -1.105998
 C     5.441422     1.275721     1.848221
 H     6.044122     1.002097     2.717667
 C     5.928215     2.208889     0.933698
 H     6.912110     2.659368     1.087130
 H     3.321778    -1.959740     0.793222
 C     2.851692    -3.462379    -0.648579
 H     3.661074    -4.123362    -0.300313
 H     1.914806    -3.789931    -0.181649
 H     2.754080    -3.611052    -1.734449
 C     4.504753    -1.603891    -0.970943
 H     4.811152    -0.575805    -0.741699
 H     5.312190    -2.270548    -0.627858
 H     4.447791    -1.707775    -2.065342
 H     2.986598     0.172906    -2.316734
 C     1.833247    -1.337989    -3.314809
 H     1.964883    -0.919862    -4.325424
 H     2.584563    -2.127936    -3.184536
 H     0.840335    -1.810279    -3.285100
 C     0.979110     0.905096    -2.576940
 H     1.137726     1.770434    -1.921228
 H     1.097754     1.242707    -3.619046
 H    -0.065457     0.583186    -2.438175
