 104
scf done:    -4035.201306
 C     1.400569    -1.344158    -2.969188
 H     1.188262    -1.208521    -4.037299
 H     2.479501    -1.332820    -2.775804
 C     0.667956    -2.469001    -2.323350
 H    -0.062231    -2.987401    -2.960258
 H     1.317495    -3.199289    -1.819635
 H     0.032007    -2.106728    -1.410440
Co     0.252838    -0.394184    -1.712693
 C     1.349874     1.579938     0.854311
 C     2.191387    -1.142329     1.066784
 C     3.400775     0.679887    -0.828322
 C    -2.363255     1.472623    -0.550111
 C    -2.922811    -1.256407    -1.318523
 C    -1.542900    -0.910181     1.138274
 P    -1.599844    -0.206422    -0.566549
 P     1.756801     0.114692    -0.203841
 C    -0.134542     0.797128    -2.863353
 O    -0.314111     1.669269    -3.610382
 H     2.159621     1.698145     1.593421
 H     0.421913     1.353675     1.401420
 C     1.184082     2.847265     0.025901
 H     1.998377     2.914121    -0.713894
 H     0.256807     2.782566    -0.567922
 C     1.185852     4.141559     0.843045
 H     2.182536     4.225219     1.316812
 C     1.001180     5.342540    -0.076885
 H     1.761265     5.357854    -0.873194
 H     1.069739     6.292058     0.476902
 H     0.012714     5.310783    -0.565413
 C     0.145548     4.141522     1.956302
 H     0.157443     5.092871     2.511274
 H     0.321180     3.331135     2.678997
 H    -0.867904     4.008703     1.544290
 C     1.746159    -1.075031     2.385424
 H     1.164501    -0.213805     2.714821
 C     2.938526    -2.272252     0.676998
 O     3.354621    -2.279731    -0.608195
 C     4.165051    -3.318091    -1.072858
 H     5.114514    -3.376175    -0.512110
 H     4.383518    -3.094828    -2.124840
 H     3.656102    -4.296927    -1.013332
 C     2.024874    -2.089125     3.303420
 H     1.653016    -2.010710     4.326990
 C     3.229739    -3.288169     1.588831
 H     3.816680    -4.155170     1.283921
 C     2.767207    -3.192893     2.903450
 H     2.994866    -3.993825     3.611140
 C     3.505276     1.049389    -2.169113
 H     2.613933     0.958081    -2.793264
 C     4.538954     0.820845    -0.006050
 O     4.384523     0.525008     1.300397
 C     5.495627     0.481707     2.145343
 H     6.261843    -0.222485     1.776326
 H     5.129801     0.129724     3.118619
 H     5.959208     1.476386     2.272783
 C     4.703183     1.519106    -2.709927
 H     4.753880     1.802372    -3.763227
 C     5.749238     1.267859    -0.546128
 H     6.633305     1.365177     0.084849
 C     5.825529     1.612932    -1.895867
 H     6.775916     1.967310    -2.303191
 H    -2.209488     1.808487    -1.589534
 H    -1.704795     2.088265     0.076602
 C    -3.822977     1.638050    -0.166802
 H    -4.430023     0.913562    -0.731983
 H    -3.959249     1.390671     0.897689
 C    -4.380566     3.037137    -0.444826
 H    -4.260527     3.231325    -1.527429
 C    -5.870678     3.077294    -0.125580
 H    -6.422848     2.310056    -0.690586
 H    -6.310925     4.057276    -0.367468
 H    -6.044895     2.889467     0.947543
 C    -3.634510     4.133876     0.305630
 H    -4.076218     5.122857     0.107668
 H    -2.574517     4.184845     0.016427
 H    -3.678776     3.963320     1.394913
 C    -2.763634    -1.632965    -2.653544
 H    -1.865521    -1.278076    -3.167797
 C    -4.071520    -1.704093    -0.627324
 O    -4.218107    -1.292845     0.644829
 C    -5.239590    -1.818436     1.440352
 H    -6.239914    -1.525149     1.075482
 H    -5.090475    -1.405333     2.446283
 H    -5.185622    -2.919311     1.497032
 C    -3.698104    -2.435295    -3.307447
 H    -3.548978    -2.709726    -4.353625
 C    -4.999756    -2.529037    -1.272038
 H    -5.882536    -2.885087    -0.740310
 C    -4.810350    -2.887292    -2.606495
 H    -5.549352    -3.526524    -3.096255
 C    -1.287553    -2.283460     1.197364
 H    -1.134603    -2.829130     0.262068
 C    -1.712918    -0.220676     2.351879
 O    -1.907069     1.117803     2.287365
 C    -2.200381     1.825592     3.458127
 H    -3.107348     1.435644     3.952368
 H    -2.373971     2.866358     3.159410
 H    -1.362607     1.799877     4.176595
 C    -1.244225    -2.979476     2.400771
 H    -1.040705    -4.051713     2.406462
 C    -1.673704    -0.913620     3.568424
 H    -1.814387    -0.381016     4.508934
 C    -1.448439    -2.288221     3.589626
 H    -1.416392    -2.811791     4.548066
