 110
scf done:    -4189.518035
 C     0.876567    -0.560285    -3.580343
 H     0.594560    -0.048104    -4.508934
 H     1.970470    -0.543712    -3.465074
 C     0.258827    -1.911003    -3.403222
 H    -0.526625    -2.150258    -4.132572
 H     0.976817    -2.744035    -3.352136
 H    -0.263658    -2.009380    -2.364044
Co    -0.214616    -0.289123    -1.982894
 C     2.981676    -0.960647    -0.860379
 C     2.353707     1.825864    -1.342611
 C     1.307112     0.472419     1.024780
 C    -2.246363     0.878829     0.541464
 C    -3.310049    -1.088049    -1.271776
 C    -1.507257    -1.925789     0.873344
 P    -1.710938    -0.599764    -0.423219
 P     1.552171     0.224273    -0.814947
 C    -1.239038     0.733813    -2.900637
 O    -1.910371     1.403623    -3.569273
 C     2.644887    -2.286619    -1.143371
 H     1.589983    -2.523356    -1.286820
 C     4.347955    -0.670859    -0.625144
 O     4.677702     0.592743    -0.302486
 C     5.995854     0.907976     0.044775
 H     6.340261     0.310099     0.904653
 H     5.993170     1.966559     0.333802
 H     6.688888     0.767526    -0.803385
 C     3.598255    -3.299857    -1.236626
 H     3.286566    -4.319180    -1.468807
 C     5.310030    -1.683586    -0.717260
 H     6.361232    -1.456428    -0.541818
 C     4.935668    -2.988748    -1.029247
 H     5.704076    -3.762375    -1.104981
 H     3.138460     2.071810    -0.619505
 H     2.851669     1.580384    -2.293257
 C     1.414154     2.974832    -1.523322
 C     0.691791     3.141363    -2.711321
 H     0.817748     2.419575    -3.519181
 C     1.249204     3.921488    -0.508270
 H     1.828388     3.814136     0.412695
 C    -0.180935     4.213525    -2.858341
 H    -0.751357     4.321449    -3.783395
 C     0.387331     5.015895    -0.641551
 C     0.231554     5.998059     0.483590
 H    -0.283999     5.535252     1.341869
 H     1.208704     6.352606     0.846803
 H    -0.353762     6.876191     0.175526
 C    -0.332763     5.146662    -1.832244
 H    -1.015199     5.991772    -1.960767
 H     0.656258     1.357029     1.110229
 H     0.703148    -0.395234     1.322980
 C     2.514851     0.575638     1.898542
 C     3.194078    -0.581942     2.303581
 H     2.828375    -1.559809     1.983351
 C     3.008591     1.814034     2.318522
 H     2.471591     2.721692     2.030457
 C     4.339873    -0.488304     3.086129
 H     4.863903    -1.398304     3.389642
 C     4.159885     1.928965     3.104676
 C     4.643533     3.277404     3.556269
 H     4.481250     4.044052     2.783861
 H     4.104746     3.608836     4.459740
 H     5.715058     3.260827     3.802821
 C     4.825742     0.757852     3.480714
 H     5.729106     0.823234     4.093851
 C    -1.930544     2.126939    -0.005609
 H    -1.299869     2.160648    -0.896667
 C    -3.023656     0.849192     1.724656
 O    -3.297194    -0.354344     2.260362
 C    -4.110815    -0.446514     3.395885
 H    -3.646499     0.041318     4.270901
 H    -4.233368    -1.517173     3.601011
 H    -5.106429    -0.009039     3.216591
 C    -2.396491     3.315685     0.555245
 H    -2.145891     4.264769     0.081935
 C    -3.474968     2.042468     2.299387
 H    -4.073130     2.019626     3.210089
 C    -3.170773     3.266966     1.707207
 H    -3.543152     4.188081     2.162850
 H    -3.453187    -0.300477    -2.025469
 H    -3.070335    -2.009205    -1.825690
 C    -4.533017    -1.247122    -0.431455
 C    -4.895346    -2.487448     0.110415
 H    -4.300319    -3.375523    -0.120967
 C    -5.327771    -0.133247    -0.143340
 H    -5.051499     0.836052    -0.568831
 C    -6.014807    -2.594956     0.930431
 H    -6.294600    -3.566969     1.344483
 C    -6.451105    -0.221233     0.684579
 C    -7.262887     1.005880     0.983754
 H    -6.623576     1.814729     1.372539
 H    -7.749754     1.392550     0.074110
 H    -8.049461     0.801999     1.724058
 C    -6.785330    -1.469613     1.220539
 H    -7.662696    -1.561350     1.866932
 H    -1.137726    -1.427289     1.778628
 H    -2.515214    -2.282364     1.130161
 C    -0.612648    -3.069663     0.513346
 C    -0.879049    -3.904354    -0.579426
 H    -1.744562    -3.711102    -1.217364
 C     0.494934    -3.362833     1.315341
 H     0.703168    -2.723521     2.178629
 C    -0.056763    -4.996126    -0.846860
 H    -0.278278    -5.645302    -1.697566
 C     1.334634    -4.451562     1.062654
 C     2.549483    -4.691992     1.907874
 H     2.794887    -5.762029     1.972927
 H     3.422038    -4.179220     1.467488
 H     2.416538    -4.304442     2.928302
 C     1.038091    -5.272444    -0.030402
 H     1.672769    -6.136848    -0.244534
