  90
scf done:    -4176.105162
 C    -1.054410     0.464103    -3.757434
 H    -0.958385    -0.148211    -4.661023
 H    -2.097464     0.747379    -3.583329
 C    -0.067535     1.575898    -3.635371
 H     0.615584     1.680707    -4.489194
 H    -0.517975     2.547270    -3.386918
 H     0.687431     1.424213    -2.750934
Co    -0.001627    -0.092551    -2.212807
 O    -1.396946     0.628833     0.721192
 O    -2.671164     1.384076    -1.337723
 O    -2.501074    -1.099907    -0.634154
 O     1.439594    -0.472931     0.733481
 O     2.663929    -1.452299    -1.260440
 O     2.539801     1.098456    -0.815171
 P     1.612372    -0.242842    -0.893295
 P    -1.576798     0.224203    -0.888293
 C     0.178247    -1.654912    -2.927625
 O     0.195291    -2.720538    -3.360365
 C    -0.719561     1.710143     1.193919
 C    -0.161609     2.685044     0.366686
 H    -0.253268     2.595343    -0.716390
 C    -0.612783     1.817726     2.583291
 H    -1.065300     1.045606     3.207017
 C     0.541284     3.764177     0.913942
 C     1.221047     4.745241     0.006363
 H     2.177990     4.328507    -0.350602
 H     0.608905     4.967162    -0.880252
 H     1.441116     5.690526     0.521721
 C     0.060551     2.905864     3.128464
 H     0.138284     3.000211     4.214435
 C     0.637187     3.872545     2.304424
 H     1.175983     4.715326     2.743868
 C    -3.965238     1.530032    -0.903593
 C    -4.265703     1.810763     0.429915
 H    -3.462379     1.914669     1.158385
 C    -4.981566     1.408988    -1.850531
 H    -4.712475     1.199390    -2.887720
 C    -5.598822     1.927640     0.814770
 H    -5.835594     2.127611     1.862193
 C    -6.310248     1.539854    -1.455188
 H    -7.106121     1.439617    -2.197179
 C    -6.624238     1.788894    -0.119672
 H    -7.666967     1.880191     0.191929
 C    -3.481577    -1.356145     0.299274
 C    -4.775561    -1.586712    -0.164347
 H    -4.974680    -1.509849    -1.233835
 C    -3.180783    -1.456862     1.656838
 H    -2.159510    -1.296900     1.996149
 C    -5.787102    -1.883290     0.744053
 H    -6.803943    -2.047689     0.380236
 C    -4.202294    -1.758801     2.554953
 H    -3.967650    -1.836773     3.619439
 C    -5.506559    -1.964828     2.108021
 H    -6.302290    -2.195471     2.819815
 C     0.777204    -1.496104     1.352344
 C     0.171465    -2.541138     0.657848
 H     0.207588    -2.574041    -0.430888
 C     0.741650    -1.451843     2.746798
 H     1.231724    -0.624907     3.262492
 C    -0.512689    -3.546742     1.348740
 C    -1.250379    -4.604213     0.584368
 H    -0.765122    -4.819931    -0.378114
 H    -1.329666    -5.539322     1.156769
 H    -2.275047    -4.259642     0.364376
 C     0.084096    -2.467028     3.435638
 H     0.058246    -2.445089     4.527900
 C    -0.541019    -3.505306     2.746659
 H    -1.066519    -4.288543     3.298220
 C     3.951839    -1.607070    -0.802175
 C     4.246368    -1.751325     0.553627
 H     3.446471    -1.745504     1.292825
 C     4.965367    -1.636477    -1.759001
 H     4.693922    -1.537721    -2.811634
 C     5.576396    -1.880715     0.946343
 H     5.810329    -1.975639     2.009047
 C     6.289647    -1.778176    -1.353591
 H     7.084109    -1.797426    -2.103498
 C     6.600974    -1.889209     0.001193
 H     7.640689    -1.990375     0.319699
 C     3.542725     1.433538     0.073955
 C     4.841426     1.544235    -0.417064
 H     5.032224     1.321503    -1.467487
 C     3.251726     1.713872     1.407113
 H     2.225856     1.640653     1.762936
 C     5.869789     1.907391     0.447518
 H     6.891207     1.978352     0.066975
 C     4.290220     2.080637     2.260526
 H     4.065379     2.300162     3.307092
 C     5.599423     2.171615     1.790170
 H     6.408468     2.453737     2.467547
