 102
scf done:    -4333.162279
 C    -1.794762    -1.997439    -2.903615
 H    -1.642050    -2.985245    -3.353830
 H    -2.829525    -1.872302    -2.565984
 C    -1.218832    -0.857194    -3.675084
 H    -0.625505    -1.145094    -4.552655
 H    -1.949067    -0.082606    -3.946625
 H    -0.484929    -0.205854    -3.034969
Co    -0.432313    -1.330245    -1.686097
 C    -2.040089     1.218757     0.102155
 O    -3.336051    -1.095961    -0.384039
 O    -1.420594    -0.935720     1.348448
 C     2.909670    -0.887488    -1.593183
 O     1.304497     1.246263    -1.773779
 O     1.364163     0.060563     0.547987
 P     1.275711    -0.265482    -1.064851
 P    -1.760014    -0.557138    -0.244642
 C     0.201502    -2.925253    -1.584068
 O     0.533874    -4.029295    -1.513662
 C    -1.620744     1.839132     1.277706
 H    -1.149998     1.223610     2.044682
 C    -2.660104     1.996477    -0.894679
 O    -3.036001     1.333484    -2.006814
 C    -3.808193     1.994046    -2.970857
 H    -4.749917     2.372354    -2.537755
 H    -4.043845     1.252355    -3.744487
 H    -3.256763     2.829964    -3.435105
 C    -1.813546     3.205874     1.478820
 H    -1.481491     3.675032     2.407274
 C    -2.868068     3.364065    -0.694570
 H    -3.362066     3.968748    -1.454970
 C    -2.440603     3.960246     0.492758
 H    -2.606256     5.030255     0.640364
 C    -4.439462    -0.507793     0.162360
 C    -4.518122    -0.175978     1.516354
 H    -3.669941    -0.385740     2.168868
 C    -5.521025    -0.248281    -0.678566
 H    -5.439113    -0.517480    -1.733203
 C    -5.672778     0.424314     2.008985
 H    -5.720265     0.687499     3.069566
 C    -6.671208     0.346514    -0.167298
 H    -7.513413     0.544912    -0.836637
 C    -6.769658     0.698727     1.183509
 C    -8.017808     1.322118     1.738992
 H    -7.783564     2.116621     2.463577
 H    -8.636817     0.576076     2.265181
 H    -8.638030     1.760115     0.943670
 C    -0.905355    -2.133615     1.747992
 C    -1.418522    -3.346371     1.286483
 H    -2.224206    -3.344465     0.550269
 C     0.128117    -2.122371     2.682186
 H     0.534497    -1.164851     3.011212
 C    -0.891684    -4.540626     1.767634
 H    -1.289925    -5.485531     1.388056
 C     0.625595    -3.326440     3.171953
 H     1.432341    -3.307210     3.910463
 C     0.129102    -4.557506     2.725534
 C     0.660716    -5.855079     3.264140
 H     1.641958    -5.721789     3.742881
 H     0.768552    -6.608078     2.468499
 H    -0.017386    -6.281555     4.022290
 C     3.560994    -0.328810    -2.695687
 H     3.157609     0.584258    -3.137452
 C     3.393050    -2.099615    -1.061050
 O     2.710482    -2.582808    -0.010571
 C     2.972741    -3.884726     0.450703
 H     2.863228    -4.618968    -0.362879
 H     2.220602    -4.087749     1.220741
 H     3.982147    -3.957880     0.891053
 C     4.693093    -0.929946    -3.243306
 H     5.192312    -0.475993    -4.101518
 C     4.523457    -2.710029    -1.610428
 H     4.900699    -3.645555    -1.197469
 C     5.168698    -2.117737    -2.695374
 H     6.051985    -2.602037    -3.118841
 C     1.805861     2.405700    -1.233251
 C     3.172010     2.597806    -1.016737
 H     3.882462     1.806182    -1.254299
 C     0.902829     3.415443    -0.914649
 H    -0.160751     3.247495    -1.089131
 C     3.614391     3.786217    -0.447678
 H     4.683821     3.915631    -0.259835
 C     1.363560     4.601484    -0.348736
 H     0.640529     5.378987    -0.086705
 C     2.722796     4.806190    -0.092707
 C     3.217346     6.059085     0.569707
 H     4.072755     6.492573     0.028858
 H     3.557275     5.852340     1.598437
 H     2.429985     6.823905     0.627427
 C     2.317388     0.685945     1.312962
 C     1.965073     1.878588     1.946023
 H     0.972810     2.294080     1.772539
 C     3.579736     0.136827     1.517709
 H     3.828562    -0.822200     1.069527
 C     2.894050     2.541927     2.735230
 H     2.609667     3.486193     3.208341
 C     4.503445     0.821804     2.307068
 H     5.497518     0.389493     2.451930
 C     4.188647     2.037503     2.919453
 C     5.197966     2.790872     3.736595
 H     4.780253     3.104360     4.705915
 H     5.527432     3.705670     3.216108
 H     6.092226     2.182995     3.934154
