 106
scf done:    -3737.379771
 C     0.060258     1.264046    -2.943383
 H     0.274815     0.904925    -3.957702
 H    -0.876070     1.834375    -2.933352
 C     1.208307     1.936385    -2.266659
 H     2.138583     1.970040    -2.851633
 H     0.983362     2.935620    -1.868205
 H     1.536026     1.373012    -1.297874
Co     0.407191     0.044213    -1.460900
 C    -1.411504     2.085997     0.804223
 C    -2.905239     0.876058    -1.338662
 C    -2.004646    -0.699790     0.846218
 C     0.997188    -2.592759     0.703410
 C     3.271612    -1.436141    -0.480230
 C     1.883625     0.029788     1.636352
 P     1.578035    -0.951170     0.093106
 P    -1.386450     0.606168    -0.312496
 C     0.463107    -1.235773    -2.582659
 O     0.431804    -2.079631    -3.380007
 C    -1.357744     1.972911     2.196534
 H    -1.373307     0.982463     2.654307
 C    -1.356666     3.387782     0.258466
 O    -1.366211     3.466873    -1.089852
 C    -1.265239     4.713909    -1.716555
 H    -2.126753     5.362227    -1.479716
 H    -1.249437     4.517386    -2.796131
 H    -0.334862     5.237899    -1.435501
 C    -1.281453     3.089420     3.030930
 H    -1.245272     2.959019     4.114546
 C    -1.291313     4.512977     1.084727
 H    -1.263242     5.513985     0.654025
 C    -1.255215     4.360309     2.471138
 H    -1.199229     5.246082     3.108072
 H    -3.751229     1.138357    -0.683080
 H    -2.707528     1.755484    -1.965924
 C    -3.221126    -0.330583    -2.208672
 H    -2.307557    -0.618662    -2.755635
 H    -3.480387    -1.199142    -1.576662
 C    -4.352647    -0.079798    -3.194962
 H    -4.088533     0.781805    -3.835071
 H    -5.264542     0.222737    -2.647464
 C    -4.664430    -1.283286    -4.073398
 H    -3.745853    -1.585076    -4.606502
 H    -4.928872    -2.141096    -3.429526
 C    -5.780976    -1.031139    -5.073565
 H    -5.982473    -1.918849    -5.692372
 H    -5.526756    -0.202697    -5.754474
 H    -6.720463    -0.759862    -4.564950
 H    -1.968941    -1.630381     0.262966
 H    -1.233201    -0.844206     1.621021
 C    -3.385158    -0.541989     1.467677
 H    -3.512840     0.467786     1.892792
 H    -4.152853    -0.633537     0.680909
 C    -3.653512    -1.583798     2.545770
 H    -2.904168    -1.474475     3.351811
 H    -3.488264    -2.593682     2.127860
 C    -5.051176    -1.501006     3.142373
 H    -5.210267    -0.486768     3.549901
 H    -5.795521    -1.616171     2.334518
 C    -5.308303    -2.535418     4.226190
 H    -6.326069    -2.452068     4.636818
 H    -4.601275    -2.420326     5.063724
 H    -5.189349    -3.559353     3.836530
 C    -0.038726    -3.216273     0.004602
 H    -0.465087    -2.687415    -0.849555
 C     1.577488    -3.289616     1.786491
 O     2.623270    -2.702886     2.409584
 C     3.232927    -3.346237     3.493099
 H     2.526992    -3.503560     4.327038
 H     4.041621    -2.686598     3.832796
 H     3.664272    -4.319749     3.202071
 C    -0.527020    -4.470808     0.366651
 H    -1.337359    -4.928413    -0.204161
 C     1.080149    -4.540607     2.167958
 H     1.515618    -5.074632     3.012441
 C     0.029592    -5.122986     1.459905
 H    -0.343177    -6.102706     1.768844
 H     3.846831    -1.801631     0.385693
 H     3.096938    -2.299685    -1.144253
 C     4.018472    -0.355240    -1.244276
 H     3.367223     0.005648    -2.057625
 H     4.204961     0.515528    -0.591909
 C     5.340911    -0.836467    -1.823061
 H     5.153572    -1.706494    -2.478307
 H     5.988268    -1.209519    -1.008126
 C     6.082058     0.236856    -2.608031
 H     5.425576     0.607981    -3.414905
 H     6.264192     1.105242    -1.949851
 C     7.398111    -0.243389    -3.197871
 H     7.908838     0.554011    -3.758915
 H     7.240864    -1.087519    -3.888491
 H     8.086718    -0.589113    -2.409858
 H     0.992185    -0.110601     2.271905
 H     2.727421    -0.411813     2.183929
 C     2.098690     1.514285     1.383270
 H     2.970655     1.665717     0.723941
 H     1.231824     1.913664     0.834099
 C     2.291863     2.316450     2.660817
 H     3.184433     1.952069     3.202254
 H     1.433639     2.133904     3.331336
 C     2.415294     3.812157     2.409481
 H     3.297895     4.003220     1.773117
 H     1.540529     4.141945     1.823354
 C     2.509576     4.633416     3.684287
 H     2.604943     5.709261     3.471232
 H     3.379613     4.336647     4.292483
 H     1.610674     4.496333     4.307207
