  90
scf done:    -6013.980895
 C     0.423476     1.740420     3.685945
 H     0.372103     1.371314     4.715761
 H     1.409430     2.152388     3.448092
 C    -0.743434     2.533085     3.234404
 H    -1.565301     2.616082     3.956579
 H    -0.494227     3.522052     2.822566
 H    -1.268927     2.062297     2.277097
Co    -0.385865     0.628939     2.304974
 O     0.968548     1.146336    -0.708035
 O     2.356161     1.874721     1.308772
 O     2.001858    -0.606713     0.679762
 O    -3.409636    -0.017353     1.884730
 O    -2.161356     0.482935    -0.317932
 O    -1.991708    -1.787864     0.852225
 P    -1.949087    -0.165538     1.181519
 P     1.165226     0.779019     0.915078
 C    -0.260567    -0.704629     3.386123
 O    -0.085669    -1.589366     4.102108
 C     0.242953     2.209197    -1.155863
 C     0.087764     3.376663    -0.409899
 H     0.586029     3.469924     0.557030
 C    -0.334377     2.097807    -2.423367
 H    -0.206929     1.170765    -2.984463
 C    -0.672131     4.443244    -0.909513
 C    -0.840445     5.687054    -0.085519
 H     0.135115     6.133239     0.163975
 H    -1.433588     6.445212    -0.615073
 H    -1.347595     5.467384     0.867852
 C    -1.069465     3.161190    -2.929061
 H    -1.525421     3.077999    -3.918325
 C    -1.246813     4.325102    -2.177468
 H    -1.832446     5.153320    -2.584132
 C     3.679736     1.816943     0.962006
 C     4.093105     2.022484    -0.353817
 H     3.352893     2.250768    -1.121324
 C     4.611668     1.541543     1.960938
 H     4.262787     1.397929     2.985225
 C     5.436882     1.882362    -0.682873
 H     5.771703     2.000737    -1.714239
 C     5.958605     1.415067     1.637842
 H     6.697768     1.179914     2.405160
 C     6.360803     1.563326     0.311453
Cl     8.023741     1.328531    -0.110736
 C     3.048781    -0.930438    -0.151715
 C     4.199022    -1.444951     0.442211
 H     4.234465    -1.537097     1.528358
 C     2.965789    -0.818371    -1.539333
 H     2.058655    -0.424733    -1.990892
 C     5.288408    -1.807065    -0.341860
 H     6.202279    -2.187433     0.116329
 C     4.051538    -1.186692    -2.326361
 H     4.002165    -1.098061    -3.412751
 C     5.212842    -1.668319    -1.725945
Cl     6.572247    -2.101101    -2.708765
 C    -4.644074    -0.518083     1.517023
 C    -4.892906    -1.885965     1.540489
 H    -4.093914    -2.565199     1.838928
 C    -5.637291     0.391457     1.161058
 H    -5.410690     1.458126     1.160680
 C    -6.144925    -2.376869     1.150951
 C    -6.414772    -3.853454     1.179916
 H    -5.575278    -4.424054     0.754950
 H    -6.554817    -4.207030     2.214654
 H    -7.323427    -4.107993     0.616688
 C    -6.879312    -0.094225     0.770028
 H    -7.657889     0.604871     0.456571
 C    -7.129687    -1.466243     0.755110
 H    -8.106682    -1.835879     0.433888
 C    -3.300506     0.489078    -1.083589
 C    -3.825520     1.728481    -1.442062
 H    -3.306212     2.632859    -1.121136
 C    -3.913770    -0.691469    -1.503301
 H    -3.499996    -1.656735    -1.211603
 C    -4.997410     1.792912    -2.188162
 H    -5.428362     2.755867    -2.466564
 C    -5.091530    -0.628605    -2.240329
 H    -5.601800    -1.542637    -2.546214
 C    -5.633795     0.612384    -2.569356
Cl    -7.124429     0.688132    -3.449798
 C    -0.884041    -2.420728     0.331893
 C    -0.146208    -3.270069     1.152157
 H    -0.435797    -3.391155     2.196469
 C    -0.530022    -2.240060    -1.005113
 H    -1.110525    -1.566135    -1.636100
 C     0.964894    -3.931822     0.639723
 H     1.565424    -4.583595     1.275707
 C     0.568060    -2.918016    -1.523438
 H     0.857844    -2.792615    -2.567117
 C     1.319158    -3.750136    -0.695632
Cl     2.724852    -4.536113    -1.326765
