  82
scf done:    -3423.188627
 C     3.587902    -1.779713     0.989315
 H     4.143793    -2.661961     0.649940
 H     4.256047    -0.911229     1.032519
 C     2.766372    -1.991986     2.217195
 H     2.802584    -3.010012     2.628918
 H     2.948098    -1.261421     3.019154
 H     1.626224    -1.833969     2.015491
Co     1.779237    -1.555105     0.297413
 O     1.047549     1.477178     1.175311
 C     3.510135     1.440334     0.078268
 C     1.227719     1.128729    -1.611960
 O    -1.199170    -0.537168    -0.516465
 C    -1.015781    -3.255903    -0.615481
 C    -1.193779    -1.865764     1.873082
 P    -0.339844    -1.783708     0.247356
 P     1.891138     0.567473     0.012053
 C     2.086102    -2.614176    -1.010179
 O     2.306389    -3.247337    -1.955110
 C     0.404979     2.660198     0.992465
 C    -0.860053     2.674072     0.397415
 H    -1.282969     1.725275     0.068043
 C     0.981708     3.850189     1.438859
 H     1.960293     3.821053     1.921551
 C    -1.552909     3.870383     0.206714
 C    -2.891387     3.872563    -0.474844
 H    -3.316322     2.859852    -0.528394
 H    -3.608382     4.524753     0.046871
 H    -2.804731     4.248823    -1.507692
 C     0.290077     5.047445     1.258587
 H     0.735723     5.983655     1.604399
 C    -0.959805     5.063084     0.643902
 H    -1.486865     6.011103     0.507111
 H     3.330007     2.526715     0.016383
 H     3.924157     1.246362     1.082693
 C     4.486848     0.981660    -0.999265
 H     4.109188     1.283648    -1.990227
 H     4.515669    -0.120195    -1.017278
 C     5.888397     1.536645    -0.799306
 H     5.887688     2.638559    -0.798324
 H     6.312141     1.206134     0.162681
 H     6.570951     1.203003    -1.595683
 H     1.664054     0.404276    -2.322037
 H     0.156161     0.880696    -1.583155
 C     1.454121     2.556880    -2.098760
 H     2.523039     2.714618    -2.317059
 H     1.195249     3.280534    -1.312005
 C     0.629321     2.859737    -3.340680
 H     0.862927     2.161422    -4.160675
 H    -0.447595     2.767738    -3.125345
 H     0.811245     3.881674    -3.707017
 C    -2.532764    -0.520737    -0.803079
 C    -3.448460    -0.044332     0.136363
 H    -3.086433     0.270017     1.117255
 C    -2.966208    -0.899198    -2.076594
 H    -2.233466    -1.253091    -2.803884
 C    -4.809506     0.058395    -0.175283
 C    -5.771540     0.609298     0.836986
 H    -5.620216     0.151189     1.826214
 H    -5.630731     1.695907     0.959961
 H    -6.814891     0.440102     0.536896
 C    -4.318459    -0.806045    -2.388781
 H    -4.664179    -1.101834    -3.382215
 C    -5.234272    -0.334070    -1.448347
 H    -6.293513    -0.263781    -1.708045
 H    -2.115598    -3.193212    -0.663795
 H    -0.638256    -3.188980    -1.650041
 C    -0.566914    -4.570254     0.016991
 H    -1.098026    -4.717900     0.972595
 H     0.505371    -4.500777     0.268507
 C    -0.801182    -5.765756    -0.892463
 H    -1.862540    -5.857100    -1.173785
 H    -0.214723    -5.668770    -1.819581
 H    -0.501406    -6.705406    -0.404294
 H    -2.271911    -2.022053     1.692483
 H    -0.822624    -2.782122     2.364554
 C    -0.954465    -0.651333     2.761318
 H    -1.224363     0.266550     2.215484
 H     0.124503    -0.542822     2.952347
 C    -1.719933    -0.723202     4.071925
 H    -2.807583    -0.775861     3.899229
 H    -1.437815    -1.614934     4.654656
 H    -1.524529     0.160881     4.697259
