 106
scf done:    -3737.440742
 C     1.784944    -3.624450    -0.756711
 H     1.845692    -4.232047    -1.667572
 H     2.787601    -3.477879    -0.338298
 C     0.770816    -4.081789     0.238627
 H     0.199259    -4.972009    -0.059055
 H     1.160332    -4.219450     1.257933
 H    -0.075791    -3.290692     0.409235
Co     0.523493    -2.134632    -0.755270
 O     1.384853    -0.020626     1.533156
 C     3.623581    -1.090652     0.456943
 C     2.069179     0.753665    -1.077692
 O    -1.145004     0.578872    -0.936940
 C    -2.759877    -1.665303    -1.167879
 C    -1.754932    -0.712627     1.375862
 P    -1.241715    -1.009022    -0.360357
 P     1.873700    -0.698158     0.039431
 C     0.274364    -2.218614    -2.454972
 O     0.197506    -2.179127    -3.609501
 C     1.568601     1.253623     1.964705
 C     0.767235     2.281963     1.456464
 H     0.027927     2.031788     0.694232
 C     2.524780     1.531249     2.942709
 H     3.126406     0.714696     3.346030
 C     0.938850     3.601763     1.875629
 C     0.111059     4.706321     1.283752
 H    -0.669369     4.312283     0.617357
 H    -0.374927     5.308703     2.067193
 H     0.738749     5.392829     0.692361
 C     2.691853     2.846575     3.374076
 H     3.443329     3.072115     4.134984
 C     1.917422     3.874703     2.842186
 H     2.067928     4.902234     3.183802
 H     4.046991    -0.243672     1.022060
 H     3.590111    -1.948980     1.149711
 C     4.483565    -1.417357    -0.759764
 H     3.928068    -2.081100    -1.443372
 H     4.675797    -0.495556    -1.333087
 C     5.811891    -2.064494    -0.394371
 H     5.617928    -3.001271     0.159777
 H     6.359798    -1.409686     0.307860
 C     6.691225    -2.365244    -1.599811
 H     6.132372    -3.011457    -2.299523
 H     6.882897    -1.427076    -2.150380
 C     8.011757    -3.024228    -1.235894
 H     8.624182    -3.228691    -2.127192
 H     7.849722    -3.982823    -0.717009
 H     8.606049    -2.384333    -0.563636
 H     2.259875     0.286617    -2.058906
 H     1.055278     1.172453    -1.169739
 C     3.099629     1.840751    -0.776223
 H     3.189574     2.012585     0.306407
 H     4.100146     1.516723    -1.108411
 C     2.749381     3.166233    -1.438717
 H     1.718566     3.442405    -1.152173
 H     2.731601     3.043206    -2.537029
 C     3.690112     4.299774    -1.058253
 H     3.689293     4.403774     0.041596
 H     4.724283     4.025623    -1.333009
 C     3.324443     5.628620    -1.699433
 H     4.015838     6.431126    -1.400189
 H     2.307086     5.941970    -1.412780
 H     3.346289     5.563065    -2.799227
 C    -2.206238     1.399273    -1.184930
 C    -2.739596     2.192503    -0.168662
 H    -2.305220     2.135413     0.831713
 C    -2.725713     1.466476    -2.480020
 H    -2.272406     0.858534    -3.265149
 C    -3.823124     3.043047    -0.419060
 C    -4.380684     3.892538     0.686094
 H    -4.693110     3.276882     1.544048
 H    -3.624272     4.602351     1.057911
 H    -5.250987     4.472535     0.349733
 C    -3.807241     2.303955    -2.731771
 H    -4.226338     2.356340    -3.739511
 C    -4.357662     3.080298    -1.711091
 H    -5.207135     3.734359    -1.922993
 H    -2.618499    -1.453633    -2.242052
 H    -2.655295    -2.760648    -1.085187
 C    -4.134203    -1.213420    -0.690787
 H    -4.318354    -1.599408     0.326870
 H    -4.174055    -0.115865    -0.611505
 C    -5.253504    -1.673061    -1.614241
 H    -5.241951    -2.775416    -1.695097
 H    -5.053749    -1.294872    -2.633280
 C    -6.631001    -1.205030    -1.166916
 H    -6.826235    -1.575980    -0.144878
 H    -6.623984    -0.103252    -1.088952
 C    -7.750823    -1.646861    -2.094853
 H    -8.732407    -1.290735    -1.747059
 H    -7.801718    -2.745347    -2.166009
 H    -7.598926    -1.259578    -3.115265
 H    -0.998330    -0.029685     1.790061
 H    -2.726820    -0.194397     1.384108
 C    -1.804173    -1.982992     2.211891
 H    -2.463488    -2.734512     1.739882
 H    -0.795409    -2.427180     2.231132
 C    -2.268707    -1.732039     3.639266
 H    -3.282086    -1.290703     3.623835
 H    -1.615688    -0.968781     4.099445
 C    -2.273832    -2.984626     4.503821
 H    -2.921808    -3.746154     4.034292
 H    -1.259114    -3.420515     4.510336
 C    -2.732213    -2.731433     5.930777
 H    -2.723991    -3.653911     6.530855
 H    -3.757345    -2.327774     5.955515
 H    -2.080068    -2.000388     6.435196
