 100
scf done:    -3734.554330
 C     0.344660     0.050324     3.699562
 H    -0.042213    -0.473215     4.581815
 H     1.443047     0.009844     3.700058
 C    -0.230433     1.411582     3.482386
 H    -1.052012     1.681000     4.159092
 H     0.513668     2.223443     3.473285
 H    -0.668139     1.525350     2.402804
Co    -0.630667    -0.187752     2.032774
 C     2.745117     0.455812     1.280955
 C     1.743911    -2.227340     1.329051
 C     1.263452    -0.537506    -1.014096
 C    -2.311001    -0.611647    -1.011413
 C    -3.899562    -0.416250     1.391915
 C    -2.746187     1.922813     0.251689
 P    -2.277144     0.168011     0.656539
 P     1.208936    -0.486276     0.876151
 C    -1.315760    -1.626660     2.628095
 O    -1.692488    -2.664494     2.987982
 H     3.569340     0.060998     0.667205
 H     2.992533     0.222013     2.328122
 C     2.618635     1.961178     1.072432
 H     1.999730     2.167710     0.186717
 H     2.078414     2.413105     1.922770
 C     3.967812     2.659218     0.889849
 H     4.469618     2.159960     0.040056
 C     3.777831     4.122350     0.512345
 H     3.209923     4.215274    -0.425794
 H     4.745103     4.629287     0.370493
 H     3.229784     4.668300     1.299607
 C     4.857733     2.516269     2.119015
 H     5.829979     3.010777     1.967805
 H     5.058906     1.461358     2.359723
 H     4.383592     2.976471     3.002866
 H     0.860970    -2.857301     1.144091
 H     1.859607    -2.183135     2.423037
 C     2.955028    -2.797577     0.667091
 C     4.247515    -2.501371     1.124285
 H     4.371185    -1.881251     2.015120
 C     2.830965    -3.629823    -0.454405
 H     1.833153    -3.902026    -0.808687
 C     5.372330    -2.986922     0.462366
 H     6.368896    -2.737686     0.834987
 C     3.953483    -4.120861    -1.118352
 H     3.828043    -4.764534    -1.992252
 C     5.231068    -3.792328    -0.668137
 H     6.113554    -4.172243    -1.187932
 H     0.312516    -0.100443    -1.339250
 H     1.242633    -1.602337    -1.291299
 C     2.384670     0.162199    -1.721834
 C     3.661140    -0.402797    -1.846322
 H     3.854505    -1.398333    -1.444302
 C     2.168138     1.433196    -2.269370
 H     1.176392     1.884920    -2.193985
 C     4.689874     0.292751    -2.478788
 H     5.676743    -0.169336    -2.561573
 C     3.195701     2.131682    -2.898367
 H     2.998680     3.124070    -3.312143
 C     4.465949     1.566092    -3.001373
 H     5.275191     2.111150    -3.493165
 H    -1.609284    -0.042313    -1.642351
 H    -3.312753    -0.465318    -1.446123
 C    -1.912665    -2.079079    -0.970303
 H    -0.975112    -2.165834    -0.397388
 H    -2.654496    -2.658379    -0.390703
 C    -1.732251    -2.731839    -2.341125
 H    -0.990461    -2.126622    -2.896354
 C    -1.167335    -4.138434    -2.185800
 H    -0.213619    -4.127872    -1.635619
 H    -0.987472    -4.612565    -3.162853
 H    -1.863972    -4.782271    -1.623861
 C    -3.024439    -2.749909    -3.150408
 H    -2.868034    -3.211242    -4.137679
 H    -3.425049    -1.738776    -3.316971
 H    -3.801665    -3.335429    -2.630509
 H    -3.969443     0.112795     2.355173
 H    -3.736285    -1.475675     1.639875
 C    -5.136110    -0.235229     0.571280
 C    -5.536095    -1.214410    -0.349238
 H    -4.958234    -2.138533    -0.431779
 C    -5.916042     0.924807     0.677856
 H    -5.638343     1.691070     1.406830
 C    -6.660332    -1.032044    -1.151029
 H    -6.950678    -1.810674    -1.860699
 C    -7.042539     1.110201    -0.120861
 H    -7.635988     2.021873    -0.017085
 C    -7.416005     0.134649    -1.043963
 H    -8.299115     0.278717    -1.670669
 H    -2.933023     2.405342     1.224354
 H    -3.706055     1.890759    -0.286256
 C    -1.744700     2.710635    -0.534881
 C    -1.820026     2.763067    -1.933925
 H    -2.604519     2.201555    -2.448593
 C    -0.741423     3.451542     0.101676
 H    -0.665022     3.427460     1.191128
 C    -0.934398     3.546316    -2.671642
 H    -1.017698     3.579032    -3.760569
 C     0.140015     4.241760    -0.631832
 H     0.904648     4.821864    -0.111857
 C     0.044989     4.296248    -2.021415
 H     0.733065     4.921099    -2.595631
