  98
scf done:    -4032.436780
 C    -1.608931     1.226491    -3.158561
 H    -1.917630     0.733998    -4.088337
 H    -2.426877     1.859377    -2.788743
 C    -0.272980     1.889241    -3.214571
 H     0.261905     1.764110    -4.166022
 H    -0.267420     2.948745    -2.920221
 H     0.476139     1.435042    -2.439147
Co    -0.598908     0.184224    -1.857056
 O    -1.382771     1.537218     1.106790
 C    -3.600398     1.242214    -0.403067
 C    -2.214319    -0.938884     0.834819
 O     0.525580    -2.108360    -0.101474
 C     2.486947    -1.083744    -1.834251
 C     1.784641     0.124662     0.752443
 P     1.038113    -0.642609    -0.751417
 P    -1.888779     0.553928    -0.205034
 C    -0.830196    -1.281440    -2.734152
 O    -1.095510    -2.280692    -3.251307
 C    -0.789981     2.741800     0.936449
 C     0.093198     3.165884     1.933605
 H     0.262042     2.507330     2.788967
 C    -1.019082     3.555890    -0.177763
 H    -1.716628     3.245679    -0.956050
 C     0.773914     4.378780     1.829160
 C     1.801656     4.760650     2.852207
 H     1.923779     5.851381     2.917318
 H     1.543062     4.380115     3.850916
 H     2.779866     4.331566     2.575951
 C    -0.354328     4.777328    -0.276391
 H    -0.540628     5.417182    -1.142851
 C     0.534919     5.188792     0.711287
 H     1.057583     6.143543     0.614347
 H    -3.527098     2.133908    -1.047795
 H    -3.897591     1.595421     0.595665
 C    -4.638617     0.296621    -0.944116
 C    -5.935429     0.325847    -0.415850
 H    -6.167249     1.024784     0.392026
 C    -4.355048    -0.623243    -1.960366
 H    -3.349591    -0.659568    -2.382361
 C    -6.919586    -0.539904    -0.883937
 H    -7.923118    -0.502143    -0.452884
 C    -5.335848    -1.499849    -2.422223
 H    -5.085983    -2.217725    -3.207269
 C    -6.621837    -1.462374    -1.886971
 H    -7.390243    -2.149629    -2.249218
 H    -1.234850    -1.202577     1.260271
 H    -2.444273    -1.736423     0.113528
 C    -3.275131    -0.848123     1.890479
 C    -4.470523    -1.562618     1.746955
 H    -4.623907    -2.174251     0.854054
 C    -3.102775    -0.061872     3.038743
 H    -2.179006     0.505887     3.160097
 C    -5.469031    -1.491611     2.715883
 H    -6.394710    -2.055835     2.578727
 C    -4.101989     0.013501     4.005947
 H    -3.950215     0.634371     4.892573
 C    -5.290311    -0.700089     3.848480
 H    -6.072823    -0.641077     4.608964
 C     1.309154    -3.136421     0.329594
 C     1.738950    -3.191224     1.655014
 H     1.429645    -2.402996     2.344872
 C     1.632318    -4.163789    -0.561415
 H     1.236674    -4.127960    -1.578312
 C     2.549451    -4.242199     2.100816
 C     3.025216    -4.273436     3.524171
 H     3.670202    -3.407992     3.745382
 H     2.178432    -4.233648     4.226932
 H     3.600214    -5.184998     3.737008
 C     2.434109    -5.212163    -0.122512
 H     2.697253    -6.016355    -0.813498
 C     2.901191    -5.245538     1.191671
 H     3.535142    -6.071939     1.522279
 H     2.348604    -0.447929    -2.720540
 H     2.272928    -2.111504    -2.169458
 C     3.891209    -0.953039    -1.322314
 C     4.433002    -1.846340    -0.389317
 H     3.835094    -2.682209    -0.023125
 C     4.698199     0.091478    -1.790147
 H     4.288199     0.801076    -2.513310
 C     5.737228    -1.683913     0.073979
 H     6.140500    -2.393502     0.800862
 C     6.001855     0.252415    -1.331669
 H     6.607464     1.081432    -1.704658
 C     6.526128    -0.633293    -0.391719
 H     7.548353    -0.507993    -0.026739
 H     2.338364    -0.664358     1.281309
 H     0.919434     0.409875     1.375536
 C     2.695078     1.298080     0.522580
 C     2.357543     2.337159    -0.350651
 H     1.390701     2.321573    -0.855216
 C     3.913802     1.370808     1.206448
 H     4.199939     0.558281     1.879035
 C     3.224639     3.407818    -0.553267
 H     2.936294     4.209109    -1.237136
 C     4.777905     2.444943     1.014621
 H     5.729040     2.475881     1.551388
 C     4.439923     3.465928     0.126724
 H     5.120088     4.306442    -0.030966
