  86
scf done:    -3875.237275
 C     0.872720     1.147470    -3.008534
 H     1.909956     1.469078    -2.835741
 H     0.761925     0.785435    -4.038270
 C    -0.163809     2.131292    -2.573036
 H     0.248805     3.095841    -2.239908
 H    -0.974567     2.299530    -3.294823
 H    -0.715122     1.793547    -1.602143
Co    -0.054085     0.161377    -1.606803
 C    -1.705936     0.353907     1.451313
 C    -3.310373     0.419631    -0.907773
 C    -2.179169    -2.036376    -0.019138
 C     1.687784    -0.181006     1.485857
 C     3.160785    -0.681751    -0.857666
 C     2.381582     1.990644    -0.212418
 P     1.685291     0.280438    -0.305189
 P    -1.720629    -0.273302    -0.274926
 C    -0.287930    -1.142826    -2.686852
 O    -0.335091    -2.020175    -3.443678
 C    -1.620508    -0.488975     2.559511
 H    -1.587661    -1.568836     2.404112
 C    -1.733629     1.746307     1.668182
 O    -1.787201     2.513927     0.556051
 C    -2.081708     3.878828     0.664059
 H    -3.037392     4.042086     1.190538
 H    -2.164955     4.259934    -0.361351
 H    -1.282344     4.431930     1.187759
 C    -1.585148     0.023787     3.855905
 H    -1.511481    -0.655688     4.706679
 C    -1.714683     2.266194     2.963278
 H    -1.752305     3.343214     3.128963
 C    -1.641061     1.398239     4.053065
 H    -1.621164     1.811056     5.064467
 C    -3.481536     0.492682    -2.293762
 C    -4.344371     0.856852    -0.071296
 C    -5.695585     1.412868    -1.996539
 C    -5.528905     1.351410    -0.612958
 C    -4.669680     0.980852    -2.835051
 H    -2.664627     0.168243    -2.943366
 H    -4.790648     1.028284    -3.920064
 H    -6.625184     1.800859    -2.420212
 H    -6.327854     1.691609     0.050877
 H    -4.219430     0.818855     1.014162
 C    -1.236467    -3.024473    -0.312757
 C    -3.444825    -2.415541     0.447385
 C    -2.808601    -4.742677     0.331479
 C    -3.755919    -3.760552     0.624620
 C    -1.550705    -4.372100    -0.137754
 H    -0.253253    -2.720185    -0.672291
 H    -0.809653    -5.137119    -0.382215
 H    -3.056946    -5.798945     0.461898
 H    -4.747414    -4.044843     0.985374
 H    -4.197312    -1.655115     0.666333
 C     1.743693     0.743377     2.529291
 H     1.803044     1.807653     2.297989
 C     1.631211    -1.551992     1.816976
 O     1.587747    -2.407476     0.776999
 C     1.845144    -3.767365     0.983830
 H     2.807032    -3.916935     1.503276
 H     1.902795    -4.226525    -0.011492
 H     1.038608    -4.256407     1.556989
 C     1.750557     0.337050     3.863997
 H     1.793998     1.085142     4.657944
 C     1.652071    -1.966433     3.150792
 H     1.621153    -3.028009     3.397760
 C     1.710122    -1.017489     4.170897
 H     1.723184    -1.349398     5.211937
 C     3.165697    -1.269418    -2.123691
 C     4.273422    -0.852657    -0.022786
 C     5.369096    -2.178405    -1.719154
 C     5.370247    -1.596173    -0.450354
 C     4.265941    -2.012111    -2.553334
 H     2.291232    -1.152314    -2.765732
 H     4.254384    -2.468913    -3.546040
 H     6.228919    -2.763880    -2.054480
 H     6.231060    -1.723585     0.211122
 H     4.275864    -0.405366     0.974896
 C     1.502805     3.016705     0.165646
 C     3.689484     2.331093    -0.573795
 C     3.241691     4.667021    -0.127547
 C     4.113416     3.659979    -0.534406
 C     1.931663     4.340143     0.223421
 H     0.466025     2.764192     0.396381
 H     1.235373     5.125339     0.529823
 H     3.577890     5.706155    -0.094225
 H     5.137265     3.907229    -0.825930
 H     4.385991     1.554351    -0.893967
