  86
scf done:    -5713.178454
 C     1.409576    -2.852868     1.746456
 H     1.469685    -3.935685     1.582628
 H     2.411848    -2.434502     1.896450
 C     0.410225    -2.420727     2.765617
 H    -0.115783    -3.242513     3.270794
 H     0.801609    -1.704941     3.501236
 H    -0.488038    -1.831894     2.295991
Co     0.126228    -1.861301     0.657240
 O     2.285695     0.242563     1.705421
 C     3.036410    -0.853733    -0.692192
 C     1.182190     1.229148    -0.572741
 O    -1.680100    -0.177688    -1.384528
 C    -3.144292    -1.949069     0.065506
 C    -2.245363     0.492549     1.239602
 P    -1.680581    -0.858352     0.146994
 P     1.559089    -0.353765     0.276374
 C    -0.089158    -3.181061    -0.435225
 O    -0.138960    -4.028807    -1.217505
 C     3.603381     0.588763     1.840764
 C     4.577499    -0.407598     1.924816
 H     4.266275    -1.453174     1.881370
 C     3.976346     1.932648     1.898489
 H     3.214942     2.710541     1.846728
 C     5.934381    -0.087941     2.006141
 C     6.969770    -1.174258     1.982137
 H     7.201651    -1.461629     0.942412
 H     7.908859    -0.850504     2.453075
 H     6.617946    -2.079305     2.498291
 C     5.326112     2.259248     2.011821
 H     5.621987     3.310118     2.060206
 C     6.298727     1.263140     2.052049
 H     7.355063     1.535198     2.121488
 C     3.306336    -2.210866    -0.887746
 H     2.567479    -2.950261    -0.574659
 C     3.977897     0.092069    -1.124847
 H     3.784520     1.158491    -0.993035
 C     4.507904    -2.626189    -1.455220
 H     4.724475    -3.686025    -1.597388
 C     5.183440    -0.306582    -1.687728
 H     5.927825     0.428441    -1.996893
 C     5.448266    -1.668765    -1.829622
Cl     6.977437    -2.174892    -2.464849
 C     1.015848     1.234367    -1.964099
 H     1.112800     0.302893    -2.526917
 C     1.017787     2.426249     0.128625
 H     1.119342     2.432193     1.214435
 C     0.737344     2.413079    -2.645339
 H     0.610876     2.417899    -3.728770
 C     0.742385     3.617940    -0.540831
 H     0.627225     4.554697     0.006771
 C     0.616981     3.603345    -1.927458
Cl     0.288941     5.079797    -2.773611
 C    -2.607893     0.738583    -1.814504
 C    -2.458072     2.077117    -1.459759
 H    -1.609227     2.361407    -0.836790
 C    -3.682694     0.330320    -2.605277
 H    -3.784910    -0.718410    -2.883237
 C    -3.396635     3.034172    -1.857616
 C    -3.244358     4.459339    -1.414214
 H    -3.236317     4.526737    -0.313973
 H    -2.295601     4.886540    -1.773805
 H    -4.064815     5.087958    -1.787182
 C    -4.610614     1.282265    -3.020253
 H    -5.455309     0.974575    -3.641284
 C    -4.476260     2.618360    -2.644112
 H    -5.220797     3.351053    -2.965818
 C    -3.326210    -2.744367    -1.073604
 H    -2.645103    -2.640572    -1.921297
 C    -3.999453    -2.130316     1.157962
 H    -3.865963    -1.535419     2.064638
 C    -4.355344    -3.675865    -1.137050
 H    -4.499172    -4.291942    -2.025966
 C    -5.030444    -3.064996     1.109877
 H    -5.700502    -3.203429     1.959798
 C    -5.206549    -3.828991    -0.042051
Cl    -6.490459    -4.986249    -0.112878
 C    -3.526531     1.058587     1.147675
 H    -4.261570     0.646862     0.452758
 C    -1.328532     1.037061     2.144934
 H    -0.332341     0.593597     2.229108
 C    -3.873270     2.158645     1.922454
 H    -4.863477     2.609488     1.842415
 C    -1.663530     2.136745     2.929765
 H    -0.947303     2.563646     3.633544
 C    -2.932575     2.698461     2.801557
Cl    -3.350225     4.088883     3.740823
