 110
scf done:    -4189.504151
 C    -1.435401     1.290480    -3.130267
 H    -1.326439     0.955994    -4.169940
 H    -2.488391     1.471476    -2.897794
 C    -0.503742     2.384301    -2.729212
 H     0.131906     2.770718    -3.539438
 H    -0.979502     3.223507    -2.200565
 H     0.298085     2.009549    -1.972603
Co    -0.348842     0.395172    -1.771248
 C    -2.754694     1.929410     0.211791
 C    -3.440902    -0.773422    -0.612453
 C    -1.376798    -0.349249     1.348029
 C     1.613933    -1.758741     0.083730
 C     2.872258     0.077081    -1.786844
 C     2.041011     0.968367     0.896833
 P     1.456265    -0.028904    -0.563877
 P    -1.963091     0.322067    -0.275160
 C     0.008969    -0.804247    -2.937350
 O     0.193781    -1.603030    -3.758284
 C    -2.262776     2.628411     1.320874
 H    -1.508558     2.162326     1.955706
 C    -3.746666     2.569410    -0.565634
 O    -4.240907     1.882166    -1.620674
 C    -5.174268     2.485460    -2.471866
 H    -6.111123     2.732371    -1.942946
 H    -5.393016     1.754199    -3.260391
 H    -4.770086     3.401596    -2.936120
 C    -2.706290     3.905307     1.657325
 H    -2.289229     4.411605     2.529759
 C    -4.197684     3.851658    -0.234242
 H    -4.965071     4.336329    -0.837576
 C    -3.674704     4.518516     0.872121
 H    -4.037246     5.519637     1.116851
 H    -4.128267    -0.673173     0.239436
 H    -3.938282    -0.336515    -1.484018
 C    -3.101393    -2.218557    -0.834982
 C    -3.020098    -3.087571     0.261299
 H    -3.200721    -2.693310     1.263921
 C    -2.907237    -2.733575    -2.134112
 C    -3.087751    -1.872572    -3.348768
 H    -2.592593    -0.902134    -3.224138
 H    -4.159795    -1.685387    -3.534546
 H    -2.668512    -2.355245    -4.241321
 C    -2.739757    -4.440786     0.097719
 H    -2.689798    -5.095439     0.971111
 C    -2.606998    -4.093077    -2.279616
 H    -2.448404    -4.489175    -3.286267
 C    -2.526182    -4.946780    -1.182188
 H    -2.303090    -6.006674    -1.329983
 H    -0.837504    -1.253480     1.031488
 H    -0.573403     0.332850     1.673836
 C    -2.265804    -0.694477     2.513717
 C    -3.510807    -0.097657     2.735878
 H    -3.870139     0.664239     2.043970
 C    -1.804373    -1.669597     3.429038
 C    -0.475822    -2.343289     3.240760
 H     0.351514    -1.617554     3.186982
 H    -0.438804    -2.922813     2.302977
 H    -0.264135    -3.033894     4.068462
 C    -4.304335    -0.453737     3.825006
 H    -5.274245     0.028122     3.968812
 C    -2.612606    -2.014125     4.516403
 H    -2.254131    -2.771337     5.219462
 C    -3.855822    -1.419135     4.719797
 H    -4.468725    -1.710049     5.576274
 C     0.713958    -2.690318    -0.448163
 H    -0.066384    -2.328314    -1.120525
 C     2.579934    -2.234782     1.005759
 O     3.430089    -1.345905     1.555161
 C     4.462453    -1.782251     2.393388
 H     4.071952    -2.242471     3.317854
 H     5.045421    -0.889464     2.652808
 H     5.126400    -2.496833     1.879729
 C     0.771016    -4.046785    -0.134380
 H     0.049524    -4.729864    -0.581317
 C     2.631211    -3.595146     1.330816
 H     3.377274    -3.958832     2.036765
 C     1.737472    -4.495459     0.755585
 H     1.800266    -5.554136     1.019390
 H     2.586896    -0.667847    -2.544268
 H     2.746710     1.059091    -2.265511
 C     4.275180    -0.154446    -1.325442
 C     4.743296    -1.468058    -1.193916
 H     4.074313    -2.292888    -1.452244
 C     5.147227     0.917280    -1.041751
 C     4.746929     2.342143    -1.299212
 H     3.798293     2.616497    -0.816409
 H     4.619115     2.521618    -2.379899
 H     5.516044     3.039227    -0.938866
 C     6.030734    -1.738198    -0.742208
 H     6.373191    -2.772412    -0.654787
 C     6.435043     0.628186    -0.572685
 H     7.111401     1.457990    -0.348117
 C     6.878072    -0.682189    -0.412242
 H     7.891660    -0.876118    -0.052786
 H     1.518791     0.529641     1.765139
 H     3.086633     0.682024     1.037122
 C     1.907461     2.465546     0.922469
 C     0.788456     3.115464     0.400511
 H     0.006011     2.511062    -0.056580
 C     2.909702     3.235842     1.557915
 C     4.103209     2.592889     2.205572
 H     4.698442     2.002700     1.490309
 H     3.801103     1.902356     3.009727
 H     4.764175     3.351614     2.646734
 C     0.654949     4.501099     0.450881
 H    -0.239076     4.973056     0.036906
 C     2.765048     4.625958     1.596927
 H     3.543054     5.222052     2.082176
 C     1.655714     5.263283     1.043396
 H     1.571962     6.351831     1.088828
