  98
scf done:    -4032.443572
 C     2.125442    -2.572591    -1.223339
 H     2.127650    -3.087367    -2.191643
 H     3.146001    -2.265654    -0.962591
 C     1.356078    -3.263445    -0.150596
 H     0.821181    -4.167201    -0.471718
 H     1.928713    -3.460237     0.767294
 H     0.504863    -2.588123     0.298276
Co     0.674566    -1.312982    -0.893807
 O     2.251063     0.575339     1.501409
 C     3.425710     0.670916    -0.926360
 C     1.017961     1.967553    -0.323085
 O    -1.897355     0.474867    -1.368720
 C    -2.495538    -2.121336    -0.864681
 C    -1.914525    -0.352127     1.270079
 P    -1.343512    -0.779594    -0.405533
 P     1.804922     0.324190    -0.134538
 C     0.350307    -1.265274    -2.574291
 O     0.220172    -1.168835    -3.719606
 C     2.747939    -0.409205     2.288681
 C     3.545458    -1.439664     1.790999
 H     3.808614    -1.448418     0.731883
 C     2.445865    -0.359260     3.654275
 H     1.835531     0.463999     4.030150
 C     4.028084    -2.446959     2.635210
 C     4.893227    -3.537864     2.073005
 H     5.893820    -3.152873     1.816893
 H     5.024609    -4.359775     2.790529
 H     4.464116    -3.953206     1.147983
 C     2.928517    -1.353413     4.496833
 H     2.688907    -1.318983     5.562541
 C     3.706139    -2.397608     3.994397
 H     4.072035    -3.178577     4.665553
 C     3.668008     0.232994    -2.229878
 H     2.904931    -0.345666    -2.754675
 C     4.417367     1.405626    -0.263952
 H     4.236580     1.755513     0.754966
 C     4.874800     0.530987    -2.860760
 H     5.044512     0.185263    -3.884254
 C     5.622677     1.686489    -0.895097
 H     6.388068     2.257849    -0.361600
 C     5.874107     1.256029    -2.205870
 C     7.185385     1.556286    -2.870824
 H     8.005580     0.986438    -2.404012
 H     7.165149     1.297681    -3.938734
 H     7.443593     2.622941    -2.782518
 C     0.513971     2.301096    -1.587228
 H     0.583971     1.584384    -2.408595
 C     0.897023     2.893395     0.715679
 H     1.287651     2.646247     1.703324
 C    -0.091731     3.531413    -1.802066
 H    -0.488930     3.766534    -2.793184
 C     0.283649     4.126666     0.490195
 H     0.196368     4.839362     1.315634
 C    -0.225464     4.466230    -0.766148
 C    -0.937819     5.764860    -1.000443
 H    -0.812145     6.455389    -0.154426
 H    -0.572221     6.266514    -1.909507
 H    -2.018560     5.592908    -1.138040
 C    -2.947033     1.297593    -1.066903
 C    -2.780235     2.300851    -0.113680
 H    -1.815705     2.393254     0.387535
 C    -4.163108     1.144885    -1.732411
 H    -4.274429     0.356125    -2.477339
 C    -3.833901     3.157584     0.211628
 C    -3.658631     4.179383     1.296861
 H    -2.640824     4.595794     1.291789
 H    -4.376649     5.006322     1.199426
 H    -3.812575     3.718002     2.287109
 C    -5.211175     2.010387    -1.424930
 H    -6.166541     1.904852    -1.944893
 C    -5.052851     3.003892    -0.460294
 H    -5.886853     3.670071    -0.223848
 C    -2.921379    -2.242847    -2.193813
 H    -2.624237    -1.488007    -2.925578
 C    -2.853066    -3.116842     0.049202
 H    -2.526593    -3.046825     1.090284
 C    -3.705625    -3.320609    -2.585983
 H    -4.032315    -3.394741    -3.627216
 C    -3.631836    -4.199573    -0.354864
 H    -3.902591    -4.967764     0.374849
 C    -4.077132    -4.319230    -1.674744
 C    -4.934379    -5.471389    -2.109230
 H    -4.993690    -6.246563    -1.332534
 H    -5.962147    -5.138619    -2.328875
 H    -4.543554    -5.936745    -3.027195
 C    -3.279593    -0.269730     1.591320
 H    -4.033871    -0.513926     0.840052
 C    -0.972849    -0.040698     2.251516
 H     0.090395    -0.103176     2.018376
 C    -3.679311     0.135505     2.856497
 H    -4.746451     0.204887     3.085196
 C    -1.382080     0.358808     3.522404
 H    -0.629377     0.593247     4.279485
 C    -2.737411     0.463195     3.844204
 C    -3.185944     0.912207     5.203158
 H    -3.839300     0.161445     5.674837
 H    -2.333242     1.090270     5.872685
 H    -3.766107     1.846769     5.137507
