  90
scf done:    -6013.914036
 C    -1.114425    -0.529793    -3.485453
 H    -0.675503    -0.943832    -4.400350
 H    -1.985284    -1.109879    -3.162091
 C    -1.279913     0.949194    -3.477865
 H    -0.874599     1.466772    -4.357210
 H    -2.303947     1.288883    -3.270690
 H    -0.739511     1.457435    -2.568524
Co     0.114257     0.012560    -2.066808
 C    -1.881997     0.363391     0.822861
 O    -2.369702    -1.625507    -0.930845
 O    -0.358814    -1.688481     0.664710
 C     3.269560     1.195827    -1.382885
 O     1.312342     2.814168    -0.946139
 O     1.512413     0.796706     0.663524
 P     1.504381     1.145920    -0.963921
 P    -1.083726    -0.666797    -0.457261
 C     1.301644    -0.974998    -2.821271
 O     2.036729    -1.709410    -3.322874
 C    -1.422957     0.423658     2.139007
 H    -0.536025    -0.149242     2.409882
 C    -3.007915     1.124966     0.455021
 O    -3.348060     1.086666    -0.848787
 C    -4.541362     1.700555    -1.263172
 H    -5.413919     1.252212    -0.758530
 H    -4.623505     1.522416    -2.342812
 H    -4.526686     2.787140    -1.077677
 C    -2.096592     1.179139     3.097113
 H    -1.730334     1.210820     4.125173
 C    -3.712257     1.846714     1.421207
 H    -4.598997     2.419069     1.150829
 C    -3.252167     1.866687     2.736604
 H    -3.805336     2.441407     3.483601
 C    -3.483630    -1.922482    -0.206345
 C    -3.429146    -2.338058     1.125863
 H    -2.463943    -2.433657     1.622733
 C    -4.716227    -1.808260    -0.851619
 H    -4.732541    -1.486938    -1.894418
 C    -4.606850    -2.618561     1.812457
 H    -4.575304    -2.936857     2.855514
 C    -5.894044    -2.095974    -0.170540
 H    -6.861756    -2.011747    -0.667820
 C    -5.834185    -2.492843     1.165161
Cl    -7.300628    -2.837239     2.024571
 C     0.321347    -2.824328     0.379118
 C     0.292918    -3.456424    -0.867491
 H    -0.287792    -3.028955    -1.684346
 C     1.038600    -3.402152     1.432016
 H     1.025124    -2.912301     2.407516
 C     1.003112    -4.637888    -1.061917
 H     0.994783    -5.126549    -2.037250
 C     1.735437    -4.590476     1.243266
 H     2.293117    -5.045216     2.063527
 C     1.724382    -5.200976    -0.011170
Cl     2.615759    -6.667027    -0.261437
 C     3.880258     2.329358    -1.923022
 H     3.292137     3.241262    -2.033402
 C     4.018597     0.012496    -1.232401
 O     3.362195    -1.025534    -0.691607
 C     3.973511    -2.290618    -0.663468
 H     4.249092    -2.617657    -1.678915
 H     3.231830    -2.983019    -0.253296
 H     4.865603    -2.288773    -0.014625
 C     5.217146     2.298913    -2.312744
 H     5.685124     3.191295    -2.732586
 C     5.358549    -0.021246    -1.627632
 H     5.944719    -0.933038    -1.516403
 C     5.947015     1.122582    -2.163100
 H     6.995929     1.087213    -2.467239
 C     0.101809     3.400760    -0.715656
 C    -0.625297     3.912677    -1.790210
 H    -0.218435     3.822556    -2.798657
 C    -0.378744     3.532317     0.588093
 H     0.197820     3.128033     1.420914
 C    -1.852605     4.530600    -1.568547
 H    -2.436874     4.925542    -2.401153
 C    -1.593173     4.168858     0.815434
 H    -1.979067     4.274676     1.828798
 C    -2.330853     4.646890    -0.265557
Cl    -3.882770     5.375853     0.015119
 C     2.542060     1.012676     1.532985
 C     3.163737     2.255899     1.658681
 H     2.844961     3.087465     1.029107
 C     2.951252    -0.062630     2.322139
 H     2.461219    -1.026400     2.180786
 C     4.196693     2.420824     2.578040
 H     4.694779     3.385751     2.683479
 C     3.977306     0.102005     3.245226
 H     4.307483    -0.731257     3.867571
 C     4.597929     1.345670     3.367967
Cl     5.883104     1.552581     4.512870
