 100
scf done:    -3734.559498
 C     1.275485     1.559627     2.964432
 H     1.261392     1.293738     4.028708
 H     2.277362     1.915871     2.685515
 C     0.153422     2.440539     2.525887
 H    -0.588609     2.673378     3.302012
 H     0.470803     3.370332     2.029190
 H    -0.488841     1.945465     1.682445
Co     0.306283     0.383798     1.748534
 C     2.410160     1.998911    -0.464764
 C     3.562215    -0.155632     0.970321
 C     1.863520    -0.772090    -1.119409
 C    -1.569478    -2.058247     0.248660
 C    -3.014270     0.139551     1.454726
 C    -1.695505     0.518508    -1.043342
 P    -1.428836    -0.254894     0.598945
 P     1.921577     0.389359     0.306783
 C     0.247706    -0.922549     2.851071
 O     0.319026    -1.856833     3.536589
 H     3.225633     1.848029    -1.191886
 H     2.848198     2.570749     0.369570
 C     1.252493     2.764995    -1.088576
 H     0.764815     2.152086    -1.864668
 H     0.471193     2.924644    -0.326984
 C     1.651406     4.112472    -1.696073
 H     2.450246     3.918964    -2.437651
 C     0.472192     4.734915    -2.432674
 H     0.076657     4.055210    -3.202736
 H     0.755255     5.681085    -2.919841
 H    -0.350558     4.952763    -1.732249
 C     2.205780     5.076784    -0.652996
 H     2.471104     6.044037    -1.107240
 H     3.108897     4.686684    -0.160630
 H     1.455055     5.273282     0.131601
 C     3.695587    -0.558607     2.298799
 H     2.823540    -0.539427     2.953218
 C     4.681643    -0.209602     0.128060
 H     4.579543     0.065023    -0.926227
 C     4.934142    -0.992865     2.773671
 H     5.032083    -1.312446     3.814188
 C     5.928363    -0.635060     0.588625
 C     7.121351    -0.674998    -0.322625
 H     6.837634    -0.473126    -1.365142
 H     7.872411     0.076274    -0.028310
 H     7.618045    -1.657230    -0.290325
 C     6.039015    -1.026160     1.930836
 H     7.004920    -1.369861     2.312707
 C     1.949618    -0.398792    -2.463633
 H     2.051096     0.650356    -2.745019
 C     1.738245    -2.131005    -0.802663
 H     1.685243    -2.423517     0.251546
 C     1.888612    -1.371278    -3.461518
 H     1.943348    -1.072776    -4.511626
 C     1.695745    -3.119457    -1.789159
 C     1.615138    -4.569686    -1.409311
 H     0.935070    -4.725017    -0.558209
 H     1.265098    -5.189943    -2.246473
 H     2.605011    -4.947547    -1.104741
 C     1.757546    -2.717357    -3.130632
 H     1.710753    -3.471427    -3.921100
 H    -1.357156    -2.552296     1.210630
 H    -0.706167    -2.285279    -0.396199
 C    -2.872299    -2.567836    -0.348405
 H    -3.660822    -2.510463     0.418745
 H    -3.200831    -1.909811    -1.172385
 C    -2.785897    -4.000223    -0.885722
 H    -2.269592    -4.614092    -0.123461
 C    -4.180195    -4.580657    -1.091003
 H    -4.752779    -4.597051    -0.150672
 H    -4.135448    -5.610638    -1.478012
 H    -4.749633    -3.977351    -1.817971
 C    -1.978431    -4.065741    -2.177870
 H    -1.856433    -5.104284    -2.522844
 H    -0.972652    -3.635830    -2.064673
 H    -2.488142    -3.504826    -2.979143
 C    -2.988388     0.373365     2.831653
 H    -2.027166     0.349870     3.351150
 C    -4.241741     0.190068     0.778703
 H    -4.269850     0.033195    -0.302246
 C    -4.174010     0.638235     3.516997
 H    -4.148451     0.821201     4.594075
 C    -5.436420     0.455363     1.450839
 C    -6.745782     0.488316     0.716498
 H    -6.596245     0.471763    -0.372210
 H    -7.370177    -0.380872     0.980803
 H    -7.325176     1.390024     0.967976
 C    -5.384655     0.678505     2.834167
 H    -6.309063     0.893005     3.378416
 C    -1.294543    -0.110182    -2.225827
 H    -0.860852    -1.110883    -2.208377
 C    -2.231138     1.811936    -1.112911
 H    -2.542274     2.313266    -0.191226
 C    -1.433351     0.549809    -3.446184
 H    -1.106185     0.054524    -4.363674
 C    -2.400372     2.474786    -2.329684
 C    -3.046440     3.828420    -2.384892
 H    -2.944852     4.363150    -1.429738
 H    -2.609520     4.454036    -3.176649
 H    -4.124950     3.737719    -2.596871
 C    -1.983795     1.826398    -3.500657
 H    -2.096987     2.330523    -4.464618
