 112
scf done:    -3891.695983
 C    -1.078797    -2.772363    -2.834738
 H    -0.881272    -3.819565    -3.093419
 H    -2.166018    -2.604379    -2.804890
 C    -0.329764    -1.772611    -3.653953
 H     0.381440    -2.199851    -4.373697
 H    -0.967440    -1.035154    -4.165932
 H     0.326783    -1.075767    -2.986251
Co     0.072091    -1.954128    -1.494569
 C    -2.730199     0.027644    -1.521966
 C    -2.786245    -2.438377     0.017009
 C    -1.518499    -0.087006     1.131155
 C     2.047251    -0.401146     0.929186
 C     3.373601    -1.921178    -1.146221
 C     2.241473     0.707889    -1.763797
 P     1.846411    -0.881119    -0.833690
 P    -1.637321    -1.047458    -0.494712
 C     0.590660    -3.476714    -0.919488
 O     0.862079    -4.505856    -0.456936
 H    -3.610155     0.343425    -0.941383
 H    -3.099159    -0.596332    -2.352427
 C    -1.973267     1.247629    -2.040985
 H    -1.263957     1.592178    -1.272107
 H    -1.354781     0.960382    -2.909536
 C    -2.872213     2.426601    -2.413947
 H    -3.464047     2.671546    -1.512403
 C    -2.034680     3.650497    -2.761402
 H    -1.401311     3.950113    -1.911923
 H    -2.668829     4.512068    -3.022458
 H    -1.374517     3.449826    -3.622283
 C    -3.837588     2.074448    -3.539221
 H    -4.490044     2.926131    -3.787518
 H    -4.487159     1.227198    -3.271031
 H    -3.288451     1.797871    -4.455581
 H    -2.982383    -2.991899    -0.912290
 H    -2.160876    -3.095601     0.640397
 C    -4.054370    -2.071388     0.715023
 C    -4.151346    -2.122980     2.111317
 H    -3.308094    -2.499288     2.697078
 C    -5.170320    -1.626758    -0.008564
 H    -5.120193    -1.611146    -1.100781
 C    -5.315273    -1.709881     2.756933
 H    -5.376735    -1.755256     3.846915
 C    -6.341860    -1.199117     0.620351
 C    -7.498425    -0.674300    -0.179851
 H    -7.508327     0.428578    -0.173244
 H    -7.443083    -0.996918    -1.229130
 H    -8.461409    -1.009853     0.232852
 C    -6.399427    -1.241578     2.020194
 H    -7.308639    -0.916656     2.533623
 H    -1.917664    -0.763706     1.901526
 H    -0.449940     0.025931     1.335952
 C    -2.185192     1.252061     1.236520
 C    -1.417474     2.423039     1.222147
 H    -0.328430     2.356477     1.161486
 C    -3.575953     1.373356     1.345391
 H    -4.188709     0.471099     1.387266
 C    -2.030278     3.672246     1.283077
 H    -1.416769     4.576943     1.274439
 C    -4.208042     2.618893     1.401876
 C    -5.705919     2.704874     1.465691
 H    -6.136705     1.802314     1.922678
 H    -6.039292     3.581172     2.040754
 H    -6.135375     2.796954     0.453340
 C    -3.417051     3.773310     1.364044
 H    -3.891773     4.757387     1.409694
 H     1.410254     0.485212     1.082628
 H     3.076198    -0.049442     1.089835
 C     1.664221    -1.517063     1.887949
 H     0.680139    -1.916169     1.591286
 H     2.360185    -2.369293     1.779868
 C     1.620810    -1.090997     3.356292
 H     0.928122    -0.230579     3.426721
 C     1.057319    -2.214988     4.216931
 H     0.055022    -2.516225     3.873929
 H     0.977558    -1.913886     5.272934
 H     1.704069    -3.106975     4.171013
 C     2.983353    -0.634520     3.867390
 H     2.928781    -0.324559     4.922385
 H     3.376668     0.217643     3.292282
 H     3.719698    -1.453761     3.800944
 H     3.212839    -2.833335    -0.550753
 H     3.285069    -2.227127    -2.199778
 C     4.701889    -1.300941    -0.862284
 C     5.456520    -0.709253    -1.884015
 H     5.101993    -0.761459    -2.917037
 C     5.206578    -1.255832     0.444177
 H     4.648308    -1.747618     1.245451
 C     6.657810    -0.066699    -1.594228
 H     7.238604     0.388153    -2.400186
 C     6.400623    -0.600368     0.757650
 C     6.871638    -0.512245     2.180036
 H     6.443050     0.374695     2.676599
 H     6.561605    -1.391435     2.763022
 H     7.965934    -0.425544     2.240900
 C     7.122106    -0.000971    -0.282462
 H     8.063728     0.509364    -0.062251
 H     3.089416     0.478139    -2.426894
 H     1.368396     0.903074    -2.401672
 C     2.539530     1.921082    -0.933825
 C     1.568195     2.911086    -0.759408
 H     0.605546     2.817528    -1.266898
 C     3.776422     2.080189    -0.294819
 H     4.552060     1.325281    -0.437733
 C     1.825228     4.018405     0.048580
 H     1.059279     4.788873     0.169455
 C     4.045954     3.175833     0.527582
 C     5.366218     3.292426     1.233749
 H     6.110743     2.610375     0.799407
 H     5.762953     4.317730     1.184442
 H     5.263914     3.036968     2.301991
 C     3.049975     4.147602     0.695252
 H     3.242581     5.016082     1.331305
