 110
scf done:    -3889.784511
 C     0.486730    -1.101775    -3.078167
 H     0.077684    -0.783141    -4.044083
 H     1.581688    -1.082736    -3.083102
 C    -0.115180    -2.341514    -2.520908
 H    -0.921591    -2.780920    -3.123885
 H     0.625384    -3.105990    -2.245948
 H    -0.623883    -2.164261    -1.476885
Co    -0.417269    -0.430470    -1.476756
 O     2.472757    -1.587520    -0.960613
 C     2.430959     1.128534    -0.365336
 C     1.598906    -0.962899     1.492822
 O    -2.276252     0.852995     1.030996
 C    -3.646495     0.394692    -1.291490
 C    -3.002233    -1.660798     0.602810
 P    -2.205827    -0.215083    -0.285370
 P     1.417208    -0.434009    -0.273293
 C    -0.773842     0.915476    -2.441182
 O    -0.959001     1.837338    -3.123129
 C     3.828928    -1.607642    -0.893270
 C     4.575043    -0.958022    -1.879063
 H     4.042131    -0.448181    -2.685420
 C     4.483338    -2.309840     0.124750
 H     3.896917    -2.845980     0.871987
 C     5.972665    -0.946721    -1.837476
 C     6.752828    -0.194939    -2.876833
 H     6.697471     0.891778    -2.697997
 H     7.814447    -0.478779    -2.869165
 H     6.355644    -0.377092    -3.886703
 C     5.874468    -2.311690     0.164976
 H     6.389385    -2.856508     0.960173
 C     6.615504    -1.627853    -0.797705
 H     7.707368    -1.632178    -0.749903
 H     2.834122     1.065082    -1.394002
 C     3.610875     1.262559     0.602556
 H     4.262994     0.378995     0.570759
 H     3.226523     1.335616     1.634579
 C     4.427321     2.515150     0.297047
 H     5.265198     2.596764     1.008664
 H     4.881329     2.410042    -0.705466
 C     3.563863     3.769936     0.334869
 H     4.162097     4.660177     0.080206
 H     3.197702     3.925040     1.366656
 C     2.369185     3.639122    -0.601056
 H     2.727296     3.603119    -1.646219
 H     1.716516     4.523219    -0.523755
 C     1.556033     2.383209    -0.312534
 H     1.086926     2.474921     0.682011
 H     0.730414     2.295931    -1.028283
 H     2.678662    -0.923604     1.721704
 C     1.118712    -2.401885     1.671434
 H     1.643136    -3.071100     0.972429
 H     0.052473    -2.446986     1.392264
 C     1.301197    -2.872838     3.110508
 H     0.917123    -3.900081     3.225215
 H     2.382236    -2.919846     3.337008
 C     0.619678    -1.938924     4.106060
 H     0.834738    -2.258197     5.138743
 H    -0.474606    -2.017377     3.984394
 C     1.042788    -0.488049     3.901079
 H     2.106573    -0.375913     4.179048
 H     0.476231     0.174335     4.576697
 C     0.861173    -0.036871     2.454768
 H    -0.208862    -0.033687     2.191039
 H     1.200846     1.003442     2.341647
 C    -1.794247     2.118949     1.093583
 C    -1.316351     2.545327     2.338636
 H    -1.347358     1.840564     3.171913
 C    -1.792123     3.002634     0.013706
 H    -2.161787     2.696713    -0.962992
 C    -0.803664     3.829816     2.516449
 C    -0.239565     4.252978     3.842054
 H    -0.527141     3.559073     4.644418
 H     0.862272     4.282385     3.806675
 H    -0.580582     5.261291     4.121433
 C    -1.290794     4.291506     0.190546
 H    -1.283673     4.977046    -0.660204
 C    -0.794797     4.705873     1.421389
 H    -0.397563     5.717305     1.539519
 H    -3.235614     1.248340    -1.857396
 C    -4.853265     0.895225    -0.502680
 H    -4.545076     1.673165     0.211961
 H    -5.279637     0.072437     0.098763
 C    -5.927207     1.431482    -1.446596
 H    -6.808251     1.756230    -0.869560
 H    -5.539233     2.333376    -1.953499
 C    -6.326926     0.399690    -2.495889
 H    -7.075506     0.823277    -3.184889
 H    -6.816327    -0.455513    -1.994400
 C    -5.115110    -0.105080    -3.272002
 H    -4.684085     0.723661    -3.861525
 H    -5.415126    -0.879682    -3.996323
 C    -4.045321    -0.652786    -2.333072
 H    -4.441744    -1.551241    -1.826410
 H    -3.150868    -0.968601    -2.895339
 H    -4.085545    -1.541467     0.425081
 C    -2.791908    -1.654688     2.117211
 H    -3.149760    -0.707361     2.541038
 H    -1.713172    -1.698042     2.332913
 C    -3.485570    -2.837227     2.784664
 H    -3.278786    -2.824140     3.867594
 H    -4.579803    -2.723465     2.678064
 C    -3.059507    -4.166702     2.174968
 H    -3.596685    -5.002029     2.652481
 H    -1.984893    -4.331303     2.376235
 C    -3.291480    -4.171290     0.669599
 H    -4.375993    -4.106343     0.466803
 H    -2.949022    -5.120021     0.225700
 C    -2.581687    -3.001159    -0.003094
 H    -1.492353    -3.126038     0.120457
 H    -2.771011    -3.014736    -1.087370
