 102
scf done:    -4333.252291
 C     0.708090    -3.170028    -1.394213
 H    -0.280773    -3.631630    -1.300876
 H     1.165307    -3.433522    -2.354472
 C     1.604891    -3.277768    -0.214766
 H     1.227858    -3.931427     0.584973
 H     2.653938    -3.502643    -0.445209
 H     1.666381    -2.270519     0.388460
Co     0.859651    -1.301795    -0.828814
 O     3.186403     0.089174     0.794952
 O     2.269435     1.649667    -0.857913
 O     0.985612     1.175046     1.274622
 O    -1.752736     0.413579    -0.283413
 O    -2.195086    -1.922966    -1.237976
 O    -1.718590    -1.563101     1.240575
 P    -1.137054    -1.102905    -0.265147
 P     1.737872     0.384266     0.054961
 C     1.367631    -0.951554    -2.438450
 O     1.667764    -0.754611    -3.533338
 C     4.054215    -0.862573     0.322716
 C     4.421339    -0.894797    -1.019543
 H     4.045305    -0.123281    -1.694571
 C     4.535814    -1.811837     1.222024
 H     4.223621    -1.764474     2.266707
 C     5.249361    -1.913981    -1.501892
 C     5.607624    -1.953768    -2.958539
 H     6.318896    -1.150750    -3.211707
 H     6.071209    -2.910869    -3.234879
 H     4.715507    -1.805354    -3.585973
 C     5.381946    -2.811477     0.751164
 H     5.764022    -3.565377     1.443557
 C     5.724703    -2.872612    -0.599697
 H     6.371871    -3.675927    -0.960596
 C     1.478065     2.583716    -1.487302
 C     0.272097     2.248155    -2.095875
 H    -0.088125     1.221247    -2.045316
 C     1.968760     3.898049    -1.491578
 C     3.259391     4.219387    -0.805671
 H     3.192799     4.005774     0.272887
 H     4.082377     3.602644    -1.198125
 H     3.520461     5.278324    -0.934754
 C    -0.477132     3.238656    -2.726249
 H    -1.427777     2.975297    -3.195597
 C     1.197948     4.868178    -2.137157
 H     1.561273     5.899348    -2.151433
 C    -0.014774     4.551389    -2.750183
 H    -0.596856     5.332547    -3.244077
 C     1.410007     2.352977     1.869891
 C     2.584498     2.364057     2.623985
 H     3.165821     1.447080     2.707604
 C     0.611959     3.496699     1.730538
 C    -0.667807     3.489930     0.955089
 H    -0.655494     4.266951     0.176011
 H    -0.836918     2.526229     0.468682
 H    -1.526443     3.689586     1.615347
 C     2.999609     3.541245     3.237498
 H     3.922409     3.550051     3.821873
 C     1.059162     4.665621     2.360696
 H     0.456073     5.571895     2.256927
 C     2.235899     4.699931     3.101426
 H     2.556134     5.630252     3.576008
 C    -2.897685     0.962845     0.251579
 C    -3.124792     0.960157     1.623508
 H    -2.404629     0.470319     2.277216
 C    -3.769677     1.612233    -0.619418
 H    -3.555244     1.614412    -1.688025
 C    -4.266020     1.576792     2.148315
 C    -4.512257     1.551666     3.629429
 H    -4.672401     0.521673     3.986824
 H    -3.649708     1.954316     4.183348
 H    -5.396908     2.143808     3.901983
 C    -4.902260     2.227396    -0.100232
 H    -5.599480     2.728144    -0.775844
 C    -5.155023     2.205278     1.271199
 H    -6.050893     2.689693     1.667861
 C    -3.515103    -1.599624    -1.441940
 C    -4.469198    -1.808127    -0.449188
 H    -4.156363    -2.205653     0.516995
 C    -3.851702    -1.068197    -2.695006
 C    -2.779588    -0.828555    -3.712974
 H    -2.192573    -1.740588    -3.898387
 H    -3.204167    -0.480212    -4.664118
 H    -2.060573    -0.071220    -3.358465
 C    -5.796753    -1.467732    -0.696343
 H    -6.546395    -1.612900     0.084461
 C    -5.193289    -0.749540    -2.919861
 H    -5.480434    -0.333698    -3.889666
 C    -6.159894    -0.939115    -1.932869
 H    -7.200150    -0.671771    -2.131486
 C    -1.215825    -2.711908     1.800900
 C    -1.559718    -3.956094     1.273017
 H    -2.226635    -3.999178     0.410109
 C    -0.365818    -2.595441     2.912248
 C    -0.033305    -1.248387     3.475034
 H     0.348285    -0.565705     2.702633
 H    -0.929773    -0.768626     3.900462
 H     0.716855    -1.329259     4.273317
 C    -1.041583    -5.117564     1.842454
 H    -1.307626    -6.091156     1.424851
 C     0.138529    -3.777278     3.463384
 H     0.806131    -3.708847     4.326683
 C    -0.185643    -5.027877     2.937794
 H     0.228358    -5.932381     3.388854
