  88
scf done:    -6061.964965
 C     0.078731    -3.785033    -1.315764
 H    -0.370217    -4.256615    -2.196993
 H     1.141823    -4.052596    -1.242692
 C    -0.683160    -3.945320    -0.042741
 H    -1.623803    -4.504548    -0.137537
 H    -0.087480    -4.337798     0.793592
 H    -1.032447    -2.922016     0.409469
Co    -0.473232    -1.948583    -0.937553
 C     2.326556    -1.464320    -2.644014
 O     1.720582     0.275140    -0.602010
 O     2.713342    -2.104862    -0.138991
 C    -1.315318     1.332140    -0.920721
 O    -2.743708    -0.325697     0.779502
 O    -0.444348     0.182045     1.428970
 P    -1.249496    -0.251337     0.044330
 P     1.497336    -1.330142    -1.005889
 C    -1.263132    -1.720380    -2.460001
 O    -1.612896    -1.484132    -3.535882
 H     2.535984    -2.541715    -2.748574
 H     1.537209    -1.229720    -3.373408
 C     3.539564    -0.619155    -2.893399
 C     3.499040     0.384638    -3.866739
 H     2.593266     0.517207    -4.464630
 C     4.716138    -0.776091    -2.147484
 H     4.762603    -1.547719    -1.377105
 C     4.586124     1.227602    -4.083897
 H     4.560427     2.014975    -4.839281
 C     5.806116     0.064128    -2.343458
 H     6.717024    -0.032765    -1.750433
 C     5.724136     1.063260    -3.306489
 F     6.759314     1.880877    -3.486129
 C     2.848882     0.981508    -0.291011
 C     3.137173     2.123871    -1.038130
 H     2.492362     2.382278    -1.878710
 C     3.647697     0.641120     0.802565
 H     3.403237    -0.229494     1.409835
 C     4.247179     2.900451    -0.727811
 H     4.492278     3.782451    -1.321312
 C     4.761290     1.415756     1.113324
 H     5.397374     1.152565     1.959792
 C     5.064382     2.535742     0.341752
Cl     6.464372     3.484519     0.714697
 C     2.453442    -2.750671     1.036235
 C     1.621141    -2.204452     2.015403
 H     1.137391    -1.238225     1.860050
 C     3.056711    -3.992981     1.238131
 H     3.703212    -4.400071     0.458515
 C     1.381334    -2.914418     3.190016
 H     0.726308    -2.499514     3.957721
 C     2.825531    -4.697260     2.414712
 H     3.291049    -5.669679     2.582340
 C     1.981017    -4.156635     3.385704
Cl     1.681054    -5.037249     4.846974
 H    -0.679591     2.056766    -0.391977
 H    -0.815843     1.095754    -1.870702
 C    -2.689969     1.883187    -1.143042
 C    -3.495345     1.398745    -2.181822
 H    -3.104150     0.636480    -2.860470
 C    -3.212284     2.857585    -0.286005
 H    -2.597327     3.244664     0.530795
 C    -4.796885     1.858320    -2.353890
 H    -5.439667     1.473633    -3.147203
 C    -4.510444     3.333145    -0.450159
 H    -4.929712     4.093321     0.211488
 C    -5.290291     2.816310    -1.477321
 F    -6.542823     3.246532    -1.621039
 C    -3.953600    -0.661913     0.237973
 C    -4.120035    -1.740706    -0.630512
 H    -3.254216    -2.340111    -0.912471
 C    -5.055825     0.098391     0.629580
 H    -4.905691     0.933959     1.313835
 C    -5.380961    -2.023821    -1.147856
 H    -5.518881    -2.855941    -1.840047
 C    -6.316267    -0.186347     0.119341
 H    -7.178937     0.419401     0.400810
 C    -6.472631    -1.240121    -0.780751
Cl    -8.037470    -1.577750    -1.444811
 C    -0.633731     1.362677     2.101096
 C    -1.759593     1.558711     2.901989
 H    -2.503413     0.766088     2.976165
 C     0.342425     2.354603     1.997829
 H     1.226186     2.174095     1.383720
 C    -1.919657     2.761741     3.583075
 H    -2.794969     2.931243     4.212198
 C     0.184635     3.557323     2.680583
 H     0.940833     4.340218     2.606404
 C    -0.950923     3.758846     3.464473
Cl    -1.156774     5.256931     4.307336
