  96
scf done:    -3929.086513
 C     1.087675    -3.930527     0.208941
 H     1.025499    -4.839390    -0.400613
 H     2.139069    -3.703793     0.436238
 C     0.165539    -3.894901     1.384093
 H    -0.501203    -4.763043     1.476147
 H     0.658322    -3.711155     2.350888
 H    -0.577165    -2.986894     1.339252
Co    -0.105677    -2.459771    -0.262609
 C     1.989832    -0.707846     1.722527
 O     2.925191    -1.391182    -0.640568
 O     1.076228     0.435078    -0.662498
 C    -1.844330     0.019649    -1.732357
 O    -3.192632    -1.507807    -0.059914
 O    -1.418469     0.027782     1.062342
 P    -1.632764    -0.993451    -0.211765
 P     1.441165    -1.042729    -0.013400
 C    -0.587069    -3.187877    -1.747929
 O    -0.817315    -3.617888    -2.796891
 H     1.104429    -0.259842     2.201190
 H     2.074467    -1.728131     2.134327
 C     3.237802     0.072288     2.012374
 C     4.498729    -0.408561     1.630083
 H     4.568758    -1.369528     1.120013
 C     3.177461     1.305534     2.671652
 H     2.210079     1.687710     3.009516
 C     5.651609     0.338559     1.849165
 H     6.633484    -0.022955     1.538220
 C     4.321425     2.066884     2.900551
 H     4.276050     3.034024     3.404402
 C     5.546983     1.577114     2.470460
 F     6.645576     2.309399     2.656804
 C     3.035796    -2.056426    -1.892808
 H     3.767960    -2.870044    -1.755637
 H     2.067077    -2.518346    -2.145949
 C     3.492898    -1.107385    -2.980023
 H     3.477812    -1.652965    -3.940107
 H     2.746246    -0.299765    -3.073705
 C     4.876248    -0.519463    -2.737403
 H     5.614954    -1.340378    -2.712403
 H     4.898278    -0.065598    -1.733616
 C     5.285335     0.508731    -3.778620
 H     5.300772     0.074180    -4.791255
 H     4.580834     1.356275    -3.798806
 H     6.287037     0.917015    -3.575412
 C     1.578985     1.715313    -0.329323
 H     0.896011     2.431875    -0.817935
 H     1.487808     1.885214     0.756249
 C     2.999280     1.967501    -0.785337
 H     3.671038     1.252914    -0.286890
 H     3.068059     1.760529    -1.865873
 C     3.459496     3.389030    -0.496162
 H     3.278310     3.620003     0.568193
 H     2.842206     4.102129    -1.071590
 C     4.930796     3.605752    -0.811885
 H     5.567017     2.968370    -0.177758
 H     5.155491     3.357711    -1.861705
 H     5.233277     4.650089    -0.642444
 H    -0.873781     0.517832    -1.868532
 H    -1.903052    -0.760964    -2.509393
 C    -2.993940     0.976235    -1.854169
 C    -4.320235     0.522550    -1.891441
 H    -4.516937    -0.548097    -1.831971
 C    -2.767624     2.354716    -1.943349
 H    -1.740630     2.730499    -1.950183
 C    -5.384999     1.415364    -1.961614
 H    -6.420163     1.069462    -1.976098
 C    -3.820951     3.263241    -2.015271
 H    -3.648322     4.339305    -2.074581
 C    -5.122004     2.778873    -2.008539
 F    -6.139743     3.639233    -2.047652
 C    -3.470302    -2.726771     0.615700
 H    -4.385663    -3.131346     0.154413
 H    -2.649969    -3.438771     0.418296
 C    -3.666706    -2.514787     2.102840
 H    -3.732999    -3.502487     2.592535
 H    -2.761854    -2.027371     2.507706
 C    -4.897387    -1.681718     2.433798
 H    -5.800670    -2.240634     2.131660
 H    -4.883608    -0.773722     1.810477
 C    -4.992284    -1.300129     3.901074
 H    -5.021421    -2.190707     4.549625
 H    -4.121868    -0.699083     4.211639
 H    -5.896062    -0.707429     4.109234
 C    -1.794513     1.386020     1.196709
 H    -1.183521     1.776283     2.028163
 H    -1.499180     1.948397     0.296385
 C    -3.263479     1.595342     1.492774
 H    -3.861355     1.199743     0.656891
 H    -3.534338     1.002905     2.382381
 C    -3.604800     3.061723     1.717434
 H    -3.222390     3.656543     0.869668
 H    -3.073166     3.431063     2.612660
 C    -5.097953     3.305011     1.865340
 H    -5.634977     3.029588     0.943988
 H    -5.521129     2.706707     2.688304
 H    -5.318049     4.362804     2.073855
