 114
scf done:    -4117.752226
 C     0.975333    -0.180108    -3.222549
 H     1.095236     0.553053    -4.029890
 H     1.839426    -0.860986    -3.224563
 C    -0.356426    -0.860083    -3.197756
 H    -1.087481    -0.451548    -3.908770
 H    -0.331123    -1.955638    -3.299488
 H    -0.873611    -0.751821    -2.162574
Co     0.265081     0.418958    -1.510356
 C     3.042497    -1.769965    -0.830240
 C     3.327757     1.037593    -0.896666
 C     2.173777    -0.109683     1.417508
 C    -1.043266     2.215709     1.191107
 C    -2.760048     1.443049    -1.070677
 C    -2.094228    -0.311611     1.170328
 P    -1.311804     0.846276    -0.046817
 P     2.020267    -0.243449    -0.429655
 C     0.339306     2.035767    -2.097525
 O     0.505947     3.076822    -2.574279
 H     3.362037    -1.598372    -1.869682
 H     3.950400    -1.725153    -0.211480
 C     2.416573    -3.125218    -0.737381
 C     2.685790    -3.971690     0.344640
 H     3.349278    -3.630463     1.143389
 C     1.566736    -3.588790    -1.747870
 H     1.375431    -2.945217    -2.609699
 C     2.094224    -5.229412     0.419562
 H     2.298327    -5.874093     1.277853
 C     0.985264    -4.859538    -1.703596
 C     0.147141    -5.357907    -2.846136
 H    -0.364090    -4.534473    -3.366572
 H     0.773305    -5.873226    -3.593555
 H    -0.612770    -6.078135    -2.508837
 C     1.246383    -5.670921    -0.593774
 H     0.790378    -6.662696    -0.530280
 H     3.292877     1.027456    -1.996611
 H     2.883023     1.997688    -0.599330
 C     4.742719     0.888215    -0.416826
 C     5.618716     0.062383    -1.138493
 H     5.256896    -0.412718    -2.053195
 C     5.247197     1.564391     0.717297
 C     4.437648     2.573449     1.481349
 H     3.651958     2.108071     2.094262
 H     3.942150     3.285869     0.805501
 H     5.079820     3.150390     2.160656
 C     6.930781    -0.159240    -0.735193
 H     7.579651    -0.813075    -1.322595
 C     6.570399     1.329454     1.112859
 H     6.954724     1.856459     1.990767
 C     7.408054     0.467462     0.412611
 H     8.435094     0.306836     0.748621
 H     3.222775    -0.321345     1.696840
 H     2.036490     0.967500     1.587330
 C     1.230513    -0.859393     2.315591
 C     0.620487    -2.050472     1.917863
 H     0.801153    -2.434069     0.916047
 C     0.961480    -0.356141     3.609666
 C     1.610730     0.903740     4.106988
 H     2.710000     0.829263     4.083678
 H     1.310934     1.120246     5.141361
 H     1.341920     1.782281     3.496386
 C    -0.235449    -2.754592     2.761663
 H    -0.701147    -3.676536     2.407677
 C     0.082735    -1.060263     4.438938
 H    -0.131695    -0.664716     5.435725
 C    -0.513764    -2.252141     4.027845
 H    -1.195206    -2.781998     4.697632
 H    -2.005953     2.401083     1.692290
 H    -0.376074     1.770249     1.945131
 C    -0.457821     3.478572     0.643956
 C     0.919212     3.710828     0.709419
 H     1.563626     2.980958     1.201966
 C    -1.263420     4.444059     0.030029
 H    -2.346522     4.298009    -0.006150
 C     1.469570     4.861610     0.155028
 H     2.547036     5.034554     0.214154
 C    -0.727836     5.598287    -0.547901
 C    -1.611213     6.579180    -1.261122
 H    -2.645871     6.537663    -0.891241
 H    -1.245830     7.610414    -1.148842
 H    -1.637811     6.356909    -2.340985
 C     0.655010     5.795076    -0.478001
 H     1.096050     6.691451    -0.921850
 H    -2.495238     2.483647    -1.317642
 H    -2.665653     0.893075    -2.014404
 C    -4.151486     1.342431    -0.525253
 C    -4.601885     2.247280     0.445758
 H    -3.927642     3.032097     0.796688
 C    -5.039997     0.348453    -0.993535
 C    -4.634565    -0.637654    -2.050499
 H    -3.755272    -1.225000    -1.745384
 H    -4.383350    -0.133306    -2.998078
 H    -5.448882    -1.345450    -2.254766
 C    -5.893859     2.186320     0.962173
 H    -6.215436     2.907983     1.716633
 C    -6.336554     0.305047    -0.468700
 H    -7.022990    -0.463611    -0.833883
 C    -6.768927     1.207089     0.500106
 H    -7.787359     1.144921     0.890583
 H    -1.321782    -0.488891     1.935693
 H    -2.890555     0.266989     1.657078
 C    -2.632606    -1.618689     0.670446
 C    -1.896451    -2.396797    -0.229611
 H    -0.920909    -2.033713    -0.558842
 C    -3.869191    -2.104595     1.146073
 C    -4.653800    -1.362782     2.188394
 H    -4.922156    -0.347512     1.859685
 H    -4.075792    -1.264126     3.121885
 H    -5.587638    -1.891035     2.424682
 C    -2.379359    -3.614077    -0.702102
 H    -1.780550    -4.198636    -1.401027
 C    -4.345406    -3.323918     0.652249
 H    -5.309047    -3.695443     1.012017
 C    -3.619850    -4.074376    -0.270237
 H    -4.018005    -5.023257    -0.637886
