  84
scf done:    -3771.980636
 C    -1.210934    -3.595212    -0.609747
 H    -1.087702    -4.589357    -0.163647
 H    -2.278241    -3.338346    -0.658160
 C    -0.446235    -3.376164    -1.872613
 H     0.168068    -4.228179    -2.195538
 H    -1.049406    -3.015553    -2.719108
 H     0.340227    -2.511507    -1.771263
Co     0.063863    -2.219996    -0.069147
 C    -2.299321    -0.229801    -1.369883
 O    -2.848132    -1.205480     0.995400
 O    -0.971589     0.553153     0.977464
 C     2.144503    -0.010926     1.368461
 O     3.124356    -1.266488    -0.709448
 O     1.249029     0.409967    -1.259577
 P     1.622607    -0.795293    -0.202720
 P    -1.468803    -0.800814     0.179018
 C     0.670853    -3.103484     1.280888
 O     0.961076    -3.627024     2.271374
 H    -1.462654     0.174665    -1.961276
 H    -2.586391    -1.182248    -1.849374
 C    -3.461131     0.718388    -1.354617
 C    -4.671538     0.391389    -0.724424
 H    -4.760658    -0.569904    -0.217926
 C    -3.371206     1.956730    -2.001765
 H    -2.448891     2.221374    -2.525903
 C    -5.739858     1.282519    -0.712026
 H    -6.682040     1.036581    -0.218465
 C    -4.431370     2.860736    -1.999711
 H    -4.361869     3.827344    -2.501851
 C    -5.605013     2.512345    -1.345919
 F    -6.626050     3.369974    -1.332840
 C    -2.798487    -1.689925     2.341435
 H    -1.846653    -1.360276     2.798185
 C    -2.858540    -3.203508     2.369492
 H    -1.988429    -3.636914     1.863265
 H    -3.772714    -3.555856     1.867088
 H    -2.871175    -3.563880     3.409079
 C    -3.961443    -1.055428     3.078968
 H    -3.926680     0.040720     3.010139
 H    -4.914432    -1.392269     2.642191
 H    -3.950837    -1.340799     4.141461
 C    -1.769020     1.682440     1.346186
 H    -2.823160     1.474174     1.097972
 C    -1.288764     2.888228     0.565619
 H    -1.331131     2.694131    -0.512495
 H    -0.246721     3.124198     0.827488
 H    -1.915198     3.766273     0.782253
 C    -1.633199     1.883525     2.843322
 H    -1.956132     0.991691     3.396683
 H    -0.583891     2.086099     3.109092
 H    -2.242176     2.737207     3.176526
 H     1.191993     0.284358     1.829692
 H     2.538355    -0.860253     1.952077
 C     3.109119     1.135530     1.344282
 C     4.425279     0.987814     0.882904
 H     4.752431     0.011979     0.520952
 C     2.710993     2.395501     1.806979
 H     1.694513     2.527196     2.185786
 C     5.304556     2.066059     0.860255
 H     6.329231     1.960140     0.498900
 C     3.579916     3.484647     1.797131
 H     3.271855     4.467740     2.157458
 C     4.869090     3.305623     1.315090
 F     5.709225     4.340253     1.293844
 C     3.302229    -2.199763    -1.778308
 H     2.447215    -2.108852    -2.475784
 C     3.342834    -3.611929    -1.230979
 H     2.399894    -3.838496    -0.713682
 H     4.168550    -3.716093    -0.510713
 H     3.490163    -4.340315    -2.042598
 C     4.571806    -1.806760    -2.504615
 H     4.511292    -0.774452    -2.877656
 H     5.433787    -1.876193    -1.823442
 H     4.752772    -2.476419    -3.358391
 C     2.165294     1.267732    -1.949498
 H     3.186239     1.063676    -1.588189
 C     1.806012     2.708536    -1.655638
 H     1.878031     2.914274    -0.580575
 H     0.778183     2.922524    -1.986382
 H     2.490574     3.389165    -2.183430
 C     2.078591     0.945541    -3.429602
 H     2.327138    -0.107441    -3.622829
 H     1.056976     1.127349    -3.798069
 H     2.771753     1.574892    -4.007794
