  86
scf done:    -3351.368243
 C     0.850392    -3.691112    -0.055027
 H     0.439984    -4.588673    -0.533437
 H     1.936005    -3.656122    -0.208285
 C     0.406376    -3.480749     1.354267
 H    -0.269646    -4.250684     1.752954
 H     1.224567    -3.312852     2.071808
 H    -0.224868    -2.501101     1.474146
Co    -0.204442    -2.060598    -0.219335
 C     2.155088    -0.033713     1.260808
 C     3.053126    -1.454884    -1.120690
 C     1.288351     0.807757    -1.367406
 C    -2.381000     0.371499    -1.211364
 C    -3.379254    -1.486370     0.728679
 C    -1.568816     0.626500     1.535362
 P    -1.800794    -0.659382     0.228372
 P     1.519835    -0.728375    -0.366593
 C    -1.010213    -2.655209    -1.597426
 O    -1.499715    -3.005453    -2.591016
 H     1.349304     0.623994     1.620513
 H     2.175942    -0.901871     1.938091
 C     3.471312     0.670916     1.270738
 C     4.651067    -0.024885     1.562098
 H     4.598790    -1.079190     1.846816
 C     3.566002     2.027110     0.932605
 H     2.648896     2.587564     0.727341
 C     5.885764     0.611810     1.472063
 H     6.801014     0.055610     1.689534
 C     4.796373     2.683487     0.838620
 C     4.865250     4.142934     0.492780
 H     4.922699     4.761130     1.404316
 H     5.755618     4.371814    -0.111070
 H     3.977540     4.467807    -0.068733
 C     5.961467     1.952204     1.101278
 H     6.935589     2.442791     1.024356
 H     3.521236    -2.053286    -0.319567
 H     2.689086    -2.191674    -1.855517
 C     4.092492    -0.540155    -1.760901
 H     4.355103     0.285703    -1.084117
 H     3.663793    -0.071412    -2.661682
 C     5.356968    -1.295504    -2.140381
 H     5.846638    -1.715413    -1.246903
 H     5.138210    -2.132660    -2.822865
 H     6.084942    -0.636793    -2.638272
 H     0.528377     1.413899    -0.842651
 H     2.214786     1.404835    -1.367967
 C     0.834543     0.518216    -2.793560
 H    -0.023474    -0.172453    -2.767966
 H     1.627965    -0.033145    -3.324626
 C     0.482315     1.777164    -3.569749
 H    -0.347034     2.325013    -3.091842
 H     1.339667     2.466893    -3.627298
 H     0.171304     1.542085    -4.598846
 H    -1.495268     0.915498    -1.564747
 H    -2.633093    -0.358682    -1.996073
 C    -3.510683     1.319419    -0.954860
 C    -4.844798     0.918756    -1.092755
 H    -5.073044    -0.094754    -1.430973
 C    -3.251793     2.633884    -0.545667
 H    -2.212043     2.962835    -0.450782
 C    -5.879555     1.806428    -0.808334
 H    -6.917338     1.482013    -0.918060
 C    -4.276610     3.539921    -0.258714
 C    -3.964521     4.951940     0.145501
 H    -2.967326     5.030984     0.601992
 H    -3.979830     5.624133    -0.728732
 H    -4.702246     5.337737     0.864322
 C    -5.600628     3.104417    -0.388426
 H    -6.419978     3.793344    -0.165399
 H    -4.057253    -0.743721     1.182916
 H    -3.849041    -1.807266    -0.216793
 C    -3.201860    -2.707633     1.620694
 H    -2.695538    -2.425454     2.558988
 H    -2.517979    -3.403786     1.109092
 C    -4.518976    -3.396988     1.937837
 H    -5.209344    -2.723132     2.470480
 H    -5.025526    -3.726209     1.016380
 H    -4.366241    -4.285701     2.569011
 H    -0.778180     1.300882     1.160297
 H    -2.484781     1.235659     1.610467
 C    -1.175229     0.079035     2.900995
 H    -0.353320    -0.647279     2.782213
 H    -2.019931    -0.488966     3.324298
 C    -0.760180     1.171104     3.874413
 H     0.121914     1.719719     3.505496
 H    -1.568003     1.905975     4.019001
 H    -0.503224     0.756672     4.860998
