 114
scf done:    -4117.585481
 C     0.244518    -1.716354    -2.437266
 H     1.172088    -2.207170    -2.761324
 H    -0.618952    -2.350516    -2.682298
 C     0.111330    -0.295808    -2.830613
 H     0.961317     0.112320    -3.399448
 H    -0.828340    -0.031858    -3.335671
 H     0.091391     0.432856    -1.893766
Co     0.244169    -0.825095    -0.706158
 C    -2.496307     1.057237    -1.305023
 C    -2.885748    -1.798535    -0.629196
 C    -2.854920     0.280357     1.402847
 C     3.382966     0.143151     1.087050
 C     3.532726    -0.684024    -1.602705
 C     2.366486     1.886012    -1.011994
 P     2.293405     0.097932    -0.430296
 P    -1.895140    -0.290706    -0.103446
 C     0.304726    -2.394974    -0.064374
 O     0.318058    -3.502502     0.274595
 H    -1.589627     1.597659    -1.606154
 H    -2.870237     0.526991    -2.192569
 C    -3.509495     2.054163    -0.831129
 C    -4.885644     1.838538    -0.963426
 H    -5.251150     0.931205    -1.445541
 C    -3.076516     3.235832    -0.216693
 H    -2.001126     3.416552    -0.120792
 C    -5.790367     2.775644    -0.470354
 H    -6.862826     2.592389    -0.574060
 C    -3.970136     4.186123     0.284725
 C    -3.468399     5.452263     0.917356
 H    -2.479700     5.309531     1.377862
 H    -3.366772     6.255062     0.167930
 H    -4.157863     5.816151     1.693035
 C    -5.341228     3.935946     0.155513
 H    -6.061454     4.660678     0.545351
 H    -2.277810    -2.254224    -1.422288
 H    -2.828545    -2.471276     0.240080
 C    -4.291558    -1.614507    -1.098363
 C    -5.375911    -1.605472    -0.212439
 H    -5.197947    -1.781565     0.848907
 C    -4.553293    -1.432344    -2.463564
 H    -3.719089    -1.476688    -3.171710
 C    -6.668947    -1.390784    -0.681857
 H    -7.506603    -1.388683     0.020030
 C    -5.843607    -1.208279    -2.953795
 C    -6.077710    -0.966962    -4.416798
 H    -5.324910    -1.476591    -5.035458
 H    -7.072567    -1.315268    -4.729848
 H    -6.019539     0.109537    -4.649841
 C    -6.903777    -1.184664    -2.039675
 H    -7.922663    -1.016085    -2.398727
 H    -2.523273     1.320112     1.543728
 H    -3.913414     0.343643     1.101602
 C    -2.737870    -0.416489     2.780403
 C    -3.530263    -1.681348     2.888363
 H    -4.618162    -1.593885     2.960902
 C    -1.259406    -0.586708     3.102158
 H     1.706532     0.323315     2.429358
 C    -2.931338    -2.883637     2.916930
 H    -3.528175    -3.797549     2.980224
 C    -0.666086    -1.922454     3.004686
 C     0.815968    -2.073121     3.098374
 H     1.298567    -1.650493     2.205254
 H     1.212937    -1.531494     3.971454
 H     1.105497    -3.129455     3.165543
 C    -1.486874    -3.000266     2.907461
 H    -1.043792    -3.998098     2.870623
 H     3.589386    -0.924765     1.284067
 H     4.345375     0.622630     0.847421
 C     2.698338     0.735652     2.256859
 C     3.126363     1.677903     3.118805
 H     4.141476     2.081754     3.019578
 C    -0.546192     0.510549     3.310730
 H    -3.174292     0.309843     3.487156
 C     2.322291     2.187831     4.234947
 H     2.883886     2.626233     5.067176
 C     0.127258     1.639088     3.240054
 C     0.152332     2.403014     1.929875
 H    -0.031017     1.730916     1.077341
 H    -0.640772     3.168645     1.955765
 H     1.110522     2.920202     1.788182
 C     0.975624     2.159367     4.341825
 H     0.503636     2.505531     5.267210
 H     2.989135    -0.900416    -2.535610
 H     4.307849     0.062045    -1.830513
 C     4.168605    -1.920761    -1.044802
 C     5.481235    -1.880677    -0.555192
 H     6.056770    -0.953942    -0.631686
 C     3.452970    -3.116508    -0.939566
 H     2.431938    -3.157406    -1.320099
 C     6.045832    -3.008242     0.033023
 H     7.069573    -2.967652     0.413503
 C     4.001644    -4.257763    -0.343604
 C     3.189525    -5.516037    -0.243633
 H     2.172557    -5.295809     0.113609
 H     3.089386    -5.999799    -1.229286
 H     3.652840    -6.242965     0.438362
 C     5.309748    -4.186968     0.145780
 H     5.756375    -5.065550     0.619368
 H     1.835470     1.895675    -1.976269
 H     1.735659     2.434466    -0.298313
 C     3.710395     2.526005    -1.145078
 C     4.315939     3.158641    -0.051304
 H     3.780276     3.214439     0.899075
 C     4.406411     2.490622    -2.359613
 H     3.931850     2.024213    -3.229165
 C     5.584233     3.717924    -0.175421
 H     6.044151     4.214785     0.682536
 C     5.684371     3.042081    -2.501620
 C     6.413901     2.951770    -3.810882
 H     5.726267     3.052255    -4.663600
 H     7.184578     3.730729    -3.898544
 H     6.918573     1.976468    -3.913721
 C     6.267661     3.656229    -1.388329
 H     7.262967     4.100034    -1.477026
