  78
scf done:    -2298.727722
 C    -0.390509    -3.415021    -1.204876
 H    -1.073478    -4.062032    -0.644914
 H    -0.631604    -3.330072    -2.267769
 C     0.951858    -3.280255    -0.770705
 H     1.293225    -3.806677     0.125791
 H     1.744279    -3.082267    -1.497691
 H     0.354118    -1.019465    -1.750934
Rh    -0.101170    -1.466861    -0.288600
 O    -2.094745     0.455627    -2.244669
 C    -3.581024    -0.734772    -0.324511
 C    -1.913578     1.526191     0.128617
 O     1.260958     0.588693     1.877606
 C     3.162055    -0.922080     0.675439
 C     2.068098     1.351427    -0.653551
 P     1.568260    -0.074425     0.385003
 P    -1.897270    -0.104320    -0.690135
 C    -0.592353    -2.033671     1.471089
 O    -0.862156    -2.364470     2.534910
 C    -2.122847    -0.481969    -3.293003
 H    -1.202729    -1.090754    -3.301722
 H    -2.993934    -1.155543    -3.208496
 H    -2.200080     0.081107    -4.233425
 C    -3.767501    -2.097846    -0.093739
 H    -2.898937    -2.760728    -0.101896
 C    -4.686940     0.125587    -0.332791
 H    -4.534741     1.193949    -0.511119
 C    -5.052368    -2.590450     0.137087
 H    -5.202215    -3.657043     0.321476
 C    -5.977542    -0.353219    -0.104782
 C    -7.161328     0.570336    -0.099940
 H    -7.650787     0.584025     0.887112
 H    -6.867303     1.600759    -0.343143
 H    -7.919893     0.251648    -0.832258
 C    -6.142158    -1.726791     0.132069
 H    -7.145867    -2.120980     0.316917
 C    -2.108345     2.720659    -0.569871
 H    -2.288163     2.690693    -1.645618
 C    -1.667399     1.560001     1.504370
 H    -1.480710     0.626789     2.041408
 C    -2.048288     3.932857     0.116476
 H    -2.186021     4.871014    -0.427113
 C    -1.617594     2.766752     2.203861
 C    -1.371204     2.784549     3.684573
 H    -2.310724     2.937242     4.241275
 H    -0.936013     1.834613     4.025701
 H    -0.689488     3.600084     3.970085
 C    -1.805589     3.956118     1.486883
 H    -1.752835     4.914177     2.012189
 C     2.030930     1.617554     2.449447
 H     3.099725     1.348863     2.514107
 H     1.932066     2.557012     1.881482
 H     1.648795     1.779441     3.467446
 C     3.459647    -1.426803     1.945473
 H     2.780195    -1.231618     2.778593
 C     4.019418    -1.201852    -0.394230
 H     3.781009    -0.814720    -1.389781
 C     4.616095    -2.179820     2.134961
 H     4.855991    -2.565508     3.129018
 C     5.176946    -1.965399    -0.218727
 C     6.067165    -2.286795    -1.384144
 H     5.761330    -3.233557    -1.860046
 H     6.020104    -1.504219    -2.155098
 H     7.115675    -2.401534    -1.072827
 C     5.467448    -2.444737     1.064971
 H     6.372773    -3.036925     1.225019
 C     1.177904     1.837984    -1.613915
 H     0.227826     1.331141    -1.785463
 C     3.301981     1.995421    -0.477300
 H     4.017404     1.601544     0.249489
 C     1.514903     2.961440    -2.366954
 H     0.814766     3.338254    -3.116317
 C     3.654155     3.119805    -1.226475
 C     4.973880     3.806192    -1.022017
 H     4.837193     4.806604    -0.579917
 H     5.626476     3.230475    -0.350848
 H     5.505636     3.945272    -1.976039
 C     2.737131     3.596284    -2.173682
 H     2.994006     4.474018    -2.774096
