  80
scf done:    -2845.896709
 C     0.141427    -3.393635    -1.548199
 H    -0.652840    -4.086136    -1.254216
 H     0.129390    -3.116631    -2.606277
 C     1.365559    -3.380164    -0.838707
 H     1.515461    -4.066224     0.000018
 H     2.286788    -3.081440    -1.344811
 H     0.965915    -0.968103    -1.501691
Rh     0.204379    -1.635976    -0.280419
 C    -1.502473    -0.022056    -2.907129
 O    -3.046350    -1.041928    -1.010823
 O    -1.703235     1.074431    -0.341849
 C     1.180254     0.054401     2.684149
 O     3.127479    -0.493155     1.005624
 O     1.464329     1.311859     0.185955
 P     1.486029    -0.202007     0.883889
 P    -1.501513    -0.400983    -1.100751
 C    -0.562576    -2.547356     1.230199
 O    -0.918853    -3.132162     2.147595
 H    -1.216949    -1.016793    -3.296818
 C    -2.833465     0.377358    -3.534086
 H    -2.736738     0.352070    -4.631247
 H    -3.642029    -0.306372    -3.244072
 H    -3.127564     1.397962    -3.252171
 C    -0.381223     0.956525    -3.244004
 H     0.559275     0.691735    -2.738981
 H    -0.199526     0.955350    -4.329554
 H    -0.651063     1.981294    -2.952237
 C    -3.441191    -1.768115     0.078887
 C    -3.708072    -3.127704    -0.082124
 H    -3.574425    -3.577492    -1.067243
 C    -3.589076    -1.164911     1.330158
 H    -3.364699    -0.103671     1.448672
 C    -4.128600    -3.887368     1.004863
 H    -4.339292    -4.953736     0.907806
 C    -4.007129    -1.922617     2.420682
 H    -4.122895    -1.477967     3.410459
 C    -4.269713    -3.275236     2.245173
 F    -4.665288    -4.002597     3.287928
 C    -2.538572     2.099996    -0.693793
 C    -3.929102     1.962786    -0.670482
 H    -4.375352     0.999543    -0.425235
 C    -1.964296     3.330280    -1.021657
 H    -0.876658     3.417911    -1.030776
 C    -4.738630     3.049430    -0.991331
 H    -5.826719     2.964066    -0.986613
 C    -2.770974     4.419716    -1.337648
 H    -2.341847     5.388689    -1.598830
 C    -4.152073     4.265059    -1.321743
 F    -4.928751     5.303683    -1.626293
 H     1.181649    -1.001138     3.016799
 C     2.243743     0.802109     3.480328
 H     2.043543     0.677444     4.556522
 H     3.250719     0.417850     3.270969
 H     2.234412     1.879522     3.265000
 C    -0.224514     0.611199     2.895881
 H    -0.970116     0.085555     2.282718
 H    -0.512603     0.509497     3.953261
 H    -0.270590     1.678074     2.635814
 C     3.858929    -1.042976    -0.009518
 C     3.808895    -0.538482    -1.311020
 H     3.159645     0.307504    -1.540579
 C     4.685506    -2.125040     0.293239
 H     4.703194    -2.503007     1.316691
 C     4.575324    -1.130057    -2.312478
 H     4.548237    -0.760392    -3.338952
 C     5.459477    -2.711913    -0.702666
 H     6.110989    -3.561616    -0.491528
 C     5.390008    -2.210239    -1.997638
 F     6.125042    -2.774688    -2.955606
 C     2.046306     2.449804     0.676329
 C     3.433992     2.606106     0.701589
 H     4.077657     1.795694     0.359743
 C     1.216252     3.487892     1.103697
 H     0.134924     3.348115     1.065635
 C     3.988279     3.790253     1.180037
 H     5.069522     3.934468     1.216504
 C     1.767204     4.675025     1.577938
 H     1.137698     5.498250     1.920379
 C     3.150087     4.809544     1.616063
 F     3.682746     5.941805     2.073378
