  66
scf done:    -2141.584135
 C    -0.553079    -3.079424    -1.630330
 H    -1.194716    -3.784185    -1.091653
 H    -0.907514    -2.836391    -2.635573
 C     0.834270    -3.041647    -1.340687
 H     1.250949    -3.700477    -0.572822
 H     1.546577    -2.764456    -2.122418
 H     0.224823    -0.657981    -1.919471
Rh    -0.086954    -1.291945    -0.490684
 O    -2.140968     1.020809    -1.875295
 C    -3.534993    -0.480803    -0.112591
 C    -1.750984     1.590076     0.645304
 O     1.381709     0.552479     1.761025
 C     3.232896    -0.900918     0.417024
 C     2.152961     1.484772    -0.715305
 P     1.649934    -0.007628     0.223591
 P    -1.856506     0.158664    -0.481112
 C    -0.400717    -2.095551     1.218072
 O    -0.564692    -2.570136     2.248453
 C    -2.305351     0.306922    -3.077406
 H    -1.433195    -0.340071    -3.273825
 H    -3.214423    -0.319235    -3.051377
 H    -2.405858     1.045077    -3.885002
 C    -3.747254    -1.857864    -0.020486
 C    -4.617626     0.398420     0.026107
 C    -6.099491    -1.478457     0.364106
 C    -5.894564    -0.100247     0.262524
 C    -5.027293    -2.356376     0.222721
 H    -2.895066    -2.530350    -0.147548
 H    -5.186560    -3.434600     0.299024
 H    -7.102795    -1.867440     0.555136
 H    -6.736359     0.587553     0.374314
 H    -4.451790     1.476634    -0.044994
 C    -1.734125     2.908830     0.182363
 C    -1.618577     1.338149     2.016106
 C    -1.454371     3.708590     2.446510
 C    -1.480918     2.392526     2.912098
 C    -1.579420     3.963283     1.082804
 H    -1.841293     3.100753    -0.886290
 H    -1.559386     4.991448     0.713067
 H    -1.335810     4.536188     3.150231
 H    -1.384271     2.186049     3.980732
 H    -1.611638     0.309146     2.384253
 C     2.136346     1.568766     2.374515
 H     3.209026     1.312823     2.430257
 H     2.024165     2.528771     1.845328
 H     1.746448     1.684877     3.395638
 C     4.038543    -1.166702    -0.697811
 C     3.574603    -1.453881     1.656233
 C     5.520980    -2.494978     0.672392
 C     4.716831    -2.242750     1.782599
 C     5.176955    -1.957468    -0.568686
 H     3.771437    -0.750596    -1.673193
 H     5.800294    -2.157298    -1.443679
 H     6.414820    -3.115340     0.771991
 H     4.977780    -2.666235     2.755629
 H     2.932496    -1.269887     2.521137
 C     1.222463     2.096616    -1.562600
 C     3.420365     2.065883    -0.563425
 C     2.805959     3.847624    -2.072860
 C     3.744405     3.239921    -1.238537
 C     1.546468     3.273677    -2.234264
 H     0.240996     1.641506    -1.705114
 H     0.809568     3.740058    -2.892504
 H     3.061460     4.768126    -2.603647
 H     4.736342     3.681189    -1.114992
 H     4.164929     1.589163     0.078570
