  54
scf done:    -1833.140534
 C    -1.631434    -2.955744    -0.991610
 H    -2.086707    -3.502897    -0.161633
 H    -2.345009    -2.583455    -1.730132
 C    -0.295433    -3.220723    -1.367370
 H     0.272432    -3.986848    -0.830149
 H     0.024032    -3.059907    -2.400093
 H    -0.678178    -0.733965    -1.728492
Rh    -0.393465    -1.329037    -0.290019
 O    -2.258793     1.444091    -0.774724
 O    -3.474293    -0.378444     0.343230
 O    -1.835431     1.099829     1.622126
 O     1.725216     1.044414     0.588231
 O     2.999857    -0.887094    -0.232759
 O     1.729779     0.535311    -1.926991
 P     1.523990    -0.185312    -0.470790
 P    -1.965436     0.205588     0.239054
 C    -0.027713    -2.149345     1.412570
 O     0.214859    -2.667927     2.404854
 C    -1.231566     2.412646    -1.028742
 H    -0.301144     2.086136    -0.531196
 C    -1.666446     3.731059    -0.422115
 H    -1.832321     3.608118     0.657193
 H    -2.605102     4.074761    -0.884075
 H    -0.898433     4.504019    -0.578632
 C    -0.995974     2.467982    -2.522288
 H    -0.641709     1.493920    -2.885967
 H    -1.927962     2.730472    -3.046125
 H    -0.234254     3.225231    -2.763426
 C    -4.582704     0.467593     0.592690
 H    -4.407790     1.094586     1.480919
 H    -4.779664     1.118410    -0.272113
 H    -5.449620    -0.182667     0.769876
 C    -1.051602     0.671185     2.710693
 H    -1.473399    -0.225079     3.195233
 H    -0.017835     0.462013     2.394607
 H    -1.040759     1.490259     3.443643
 C     2.938362     1.512674     1.194417
 H     3.781269     1.308850     0.514598
 C     3.170069     0.767505     2.494090
 H     3.251474    -0.311311     2.304408
 H     2.336853     0.943165     3.191890
 H     4.100089     1.107540     2.974310
 C     2.779850     3.006106     1.386017
 H     2.608769     3.510929     0.423880
 H     1.918049     3.216215     2.037660
 H     3.680828     3.435512     1.848666
 C     3.270590    -2.148264    -0.806150
 H     2.394494    -2.812050    -0.726581
 H     3.543499    -2.051347    -1.870240
 H     4.115556    -2.587778    -0.258665
 C     2.811513     1.392729    -2.207975
 H     2.723323     2.340903    -1.652237
 H     3.777619     0.921227    -1.963720
 H     2.784560     1.613687    -3.283619
