  82
scf done:    -2599.536188
 C    -0.936692    -3.689139    -1.707676
 H    -1.732051    -4.291284    -1.259805
 H    -1.168984    -3.304807    -2.703766
 C     0.405830    -3.881963    -1.318986
 H     0.655775    -4.638454    -0.569811
 H     1.219869    -3.641604    -2.007124
 H     0.150108    -1.393805    -1.765366
Rh    -0.330575    -2.057921    -0.403620
 O    -2.107788     0.655104    -1.478403
 O    -3.502740    -1.204638    -0.531243
 O    -2.232365     0.292899     1.015041
 O     1.901170    -0.627296     1.793346
 O     2.911863    -1.622132    -0.341328
 O     1.582665     0.581609    -0.347685
 P     1.514635    -0.953979     0.233564
 P    -1.998172    -0.549799    -0.404753
 C    -0.975608    -2.965543     1.164302
 O    -1.400012    -3.536224     2.060279
 C    -1.044126     1.111157    -2.333987
 H    -0.107485     0.642556    -1.994448
 C    -0.934074     2.611588    -2.177200
 H    -0.710387     2.878436    -1.135090
 H    -1.874385     3.104276    -2.467743
 H    -0.123299     2.997424    -2.813178
 C    -1.350650     0.657315    -3.744442
 H    -1.409920    -0.440289    -3.788829
 H    -2.310263     1.075137    -4.086708
 H    -0.561583     0.989044    -4.435904
 C    -4.649708    -0.464574    -0.364345
 C    -5.177814     0.256195    -1.434447
 H    -4.659666     0.236311    -2.393412
 C    -5.276091    -0.457339     0.880910
 H    -4.829034    -1.023320     1.699339
 C    -6.342962     0.997369    -1.247788
 H    -6.758643     1.565911    -2.083165
 C    -6.441231     0.285659     1.055761
 H    -6.931730     0.296735     2.031924
 C    -6.976225     1.017079    -0.004949
 H    -7.888290     1.601109     0.136586
 C    -2.045078     1.645251     1.147017
 C    -3.082625     2.530875     0.856234
 H    -4.039267     2.138682     0.507822
 C    -0.808558     2.116748     1.584483
 H    -0.016649     1.398371     1.795974
 C    -2.869498     3.899336     1.004082
 H    -3.679871     4.595276     0.774033
 C    -0.603391     3.488183     1.721291
 H     0.373340     3.855682     2.044186
 C    -1.632450     4.383396     1.431485
 H    -1.469879     5.458449     1.535562
 C     1.591362    -1.557927     2.841980
 H     1.273100    -2.508911     2.379491
 C     0.448757    -0.996686     3.661599
 H    -0.428567    -0.806225     3.026613
 H     0.744910    -0.046780     4.133127
 H     0.156529    -1.702298     4.453279
 C     2.856352    -1.802078     3.636809
 H     3.643555    -2.221894     2.994169
 H     3.224865    -0.860685     4.072867
 H     2.664641    -2.510561     4.456149
 C     4.093157    -0.973953    -0.605502
 C     4.844013    -0.378314     0.407929
 H     4.481785    -0.414134     1.435246
 C     4.530406    -0.940416    -1.928733
 H     3.921540    -1.424824    -2.694411
 C     6.022193     0.287357     0.079788
 H     6.599738     0.773724     0.869117
 C     5.716481    -0.281971    -2.243156
 H     6.057763    -0.251315    -3.280737
 C     6.461158     0.341534    -1.242598
 H     7.385193     0.867246    -1.492484
 C     2.466963     1.615709    -0.151186
 C     3.059502     2.168144    -1.285764
 H     2.842055     1.726971    -2.259524
 C     2.722448     2.148194     1.112709
 H     2.260984     1.697094     1.988906
 C     3.931808     3.243761    -1.153044
 H     4.404590     3.664562    -2.043429
 C     3.597212     3.226307     1.231578
 H     3.803999     3.638306     2.222493
 C     4.207133     3.776900     0.105894
 H     4.894249     4.619476     0.208463
