  78
scf done:    -2147.400050
 C     1.345240    -3.054786     0.873734
 H     2.116992    -3.518437     0.253826
 H     1.714110    -2.647625     1.818353
 C    -0.001546    -3.456402     0.757224
 H    -0.271165    -4.245176     0.048652
 H    -0.672609    -3.366599     1.615239
 H    -0.064557    -0.948071     1.208784
Rh     0.277759    -1.527083    -0.233433
 O     1.958591     1.249025     0.771358
 O     3.420514    -0.672441    -0.100791
 O     2.265537     0.882320    -1.633100
 O    -1.753317     0.072350    -2.260226
 O    -3.065412    -1.508817    -0.931032
 O    -2.344262     0.574325     0.153254
 P    -1.704558    -0.613949    -0.781832
 P     1.952100    -0.006184    -0.307273
 C     0.603786    -2.307467    -1.958631
 O     0.778904    -2.786498    -2.981830
 C     1.815430     1.019795     2.153446
 H     1.047622     0.252989     2.355519
 H     2.767302     0.693752     2.604132
 H     1.510141     1.968129     2.617446
 C     4.659009    -0.002703    -0.337744
 H     5.341667    -0.779778    -0.717067
 H     4.527376     0.749252    -1.129665
 C     5.220368     0.623509     0.922469
 H     6.176971     1.108700     0.658729
 H     4.547389     1.434959     1.246988
 C     5.437253    -0.368218     2.056700
 H     6.161322    -1.136261     1.732059
 H     4.494569    -0.911305     2.238115
 C     5.918795     0.286184     3.340840
 H     6.873679     0.815130     3.189670
 H     5.190986     1.028686     3.707616
 H     6.071157    -0.452714     4.142016
 C     1.264717     1.311825    -2.548651
 H     1.808855     1.541176    -3.477862
 H     0.559273     0.490269    -2.751236
 C     0.508388     2.527131    -2.054443
 H    -0.194940     2.827232    -2.851356
 H    -0.123184     2.228252    -1.201939
 C     1.392776     3.697274    -1.653056
 H     1.999845     4.011090    -2.521015
 H     2.104585     3.346541    -0.889142
 C     0.602425     4.879960    -1.118047
 H    -0.116355     5.258305    -1.863394
 H     0.026402     4.597569    -0.222065
 H     1.260985     5.716126    -0.837918
 C    -2.930890     0.666361    -2.772158
 H    -3.706795    -0.092925    -2.950123
 H    -3.323102     1.424463    -2.076066
 H    -2.661917     1.148514    -3.721584
 C    -3.335991    -2.604146    -0.068361
 H    -4.212524    -3.106078    -0.506687
 H    -2.487948    -3.306937    -0.098991
 C    -3.619428    -2.182641     1.360299
 H    -3.803107    -3.097832     1.951042
 H    -2.705185    -1.728861     1.783530
 C    -4.787104    -1.217675     1.502196
 H    -5.708366    -1.705511     1.137028
 H    -4.606486    -0.358795     0.837629
 C    -4.987749    -0.732994     2.928046
 H    -5.190527    -1.569058     3.617141
 H    -4.088627    -0.213959     3.298051
 H    -5.829472    -0.027709     3.002772
 C    -1.595770     1.383476     1.043540
 H    -1.605890     0.910881     2.042441
 H    -0.544988     1.444581     0.721890
 C    -2.213811     2.762806     1.102155
 H    -1.583620     3.387909     1.759615
 H    -2.155267     3.217484     0.097461
 C    -3.654487     2.778252     1.591996
 H    -3.697772     2.332477     2.601479
 H    -4.253981     2.115326     0.946944
 C    -4.262489     4.170627     1.615567
 H    -3.695899     4.846529     2.276542
 H    -4.263838     4.622191     0.610283
 H    -5.303355     4.152730     1.972393
