 100
scf done:    -2835.235438
 C    -1.203701    -1.900393    -3.243592
 H    -1.947094    -2.686696    -3.082291
 H    -1.588145    -1.002923    -3.734894
 C     0.163686    -2.235202    -3.340571
 H     0.478672    -3.279130    -3.256983
 H     0.848323    -1.600655    -3.908236
 H     0.080232     0.017794    -2.152318
Rh    -0.212865    -1.344582    -1.394909
 O    -1.058595     1.189947     0.582340
 O    -2.657610     0.807265    -1.385083
 O    -2.741739    -0.595138     0.762562
 O     2.079518    -2.036291     0.824772
 O     3.099118    -1.119367    -1.361184
 O     2.124481     0.372493     0.443303
 P     1.762212    -1.016356    -0.392348
 P    -1.648340     0.003875    -0.344099
 C    -0.570894    -3.058145    -0.576019
 O    -0.750825    -4.097249    -0.138870
 C    -1.662655     1.742453     1.755197
 H    -2.643887     2.174162     1.500054
 H    -1.831556     0.931790     2.479966
 C    -0.748831     2.799208     2.327182
 H    -1.203594     3.134066     3.276791
 H     0.218836     2.336867     2.589565
 C    -0.519495     3.995236     1.414403
 H    -1.495352     4.360864     1.050824
 H     0.035140     3.662312     0.522252
 C     0.227809     5.125086     2.102044
 H    -0.349912     5.533743     2.947471
 H     1.194653     4.778815     2.498533
 H     0.435360     5.954251     1.408242
 C    -3.447543     1.864616    -1.008170
 C    -2.990941     3.162684    -1.225348
 H    -2.005875     3.307794    -1.672180
 C    -4.694550     1.645969    -0.424422
 H    -5.038488     0.623792    -0.258180
 C    -3.783403     4.241696    -0.845000
 H    -3.415659     5.258267    -1.010722
 C    -5.473497     2.736948    -0.047816
 H    -6.447752     2.560049     0.416306
 C    -5.035793     4.051982    -0.247609
 C    -5.896095     5.221497     0.134794
 H    -5.288693     6.097404     0.405597
 H    -6.548128     4.981147     0.987080
 H    -6.549222     5.522981    -0.701389
 C    -3.319769    -1.826060     0.614477
 C    -3.861040    -2.245696    -0.601126
 H    -3.837309    -1.579411    -1.465394
 C    -3.358654    -2.667839     1.724508
 H    -2.931861    -2.316733     2.665207
 C    -4.415071    -3.520408    -0.698626
 H    -4.829668    -3.845301    -1.656896
 C    -3.923542    -3.932853     1.610613
 H    -3.944111    -4.587916     2.485954
 C    -4.451227    -4.389864     0.396006
 C    -5.007158    -5.778380     0.269855
 H    -4.199332    -6.511915     0.109490
 H    -5.698830    -5.860630    -0.580701
 H    -5.546513    -6.082279     1.179279
 C     2.679366    -1.746132     2.086535
 H     3.088266    -2.708875     2.430970
 H     3.519669    -1.047632     1.958780
 C     1.667521    -1.206121     3.077695
 H     2.183900    -1.096665     4.048297
 H     1.368406    -0.191811     2.765757
 C     0.428960    -2.075580     3.242160
 H     0.732573    -3.107268     3.493174
 H    -0.090932    -2.142951     2.272569
 C    -0.524194    -1.545998     4.300523
 H    -0.035295    -1.472919     5.285464
 H    -0.888545    -0.539076     4.040211
 H    -1.403439    -2.197556     4.418440
 C     4.383968    -1.083959    -0.870378
 C     4.970887    -2.249931    -0.381045
 H     4.391793    -3.174763    -0.378725
 C     5.102407     0.109789    -0.885567
 H     4.630935     1.013736    -1.274396
 C     6.275175    -2.210621     0.103960
 H     6.728084    -3.128144     0.490129
 C     6.405991     0.130929    -0.397677
 H     6.961170     1.073066    -0.407888
 C     7.017051    -1.023274     0.106885
 C     8.434388    -0.995569     0.601701
 H     8.611030    -1.767780     1.364487
 H     8.690127    -0.019088     1.038470
 H     9.145097    -1.180655    -0.221320
 C     2.283011     1.650102     0.001397
 C     1.935404     2.086982    -1.275481
 H     1.498412     1.393363    -1.993653
 C     2.857251     2.545666     0.906672
 H     3.143643     2.179395     1.894322
 C     2.146091     3.420980    -1.623484
 H     1.863899     3.751504    -2.627035
 C     3.070763     3.867363     0.536759
 H     3.528793     4.553588     1.254545
 C     2.710154     4.338174    -0.732695
 C     2.902803     5.779347    -1.105362
 H     2.131869     6.416017    -0.639479
 H     2.838660     5.926674    -2.192780
 H     3.879920     6.157344    -0.768128
