  90
scf done:    -2156.070275
 C    -1.126146    -3.129907    -0.936373
 H    -1.887334    -3.563884    -0.280266
 H    -1.471655    -2.954516    -1.959741
 C     0.244702    -3.420422    -0.706273
 H     0.524838    -4.071379     0.128216
 H     0.933677    -3.463167    -1.554026
 H     0.218101    -1.071591    -1.620328
Rh    -0.177969    -1.384830    -0.107377
 O    -1.685766     1.175527    -1.776324
 C    -3.508153    -0.539092    -0.727972
 C    -2.147365     1.558876     0.791438
 O     1.352703     0.843078     1.702586
 C     3.287606    -0.874034     0.699786
 C     1.904753     1.237100    -0.969877
 P     1.647512    -0.066963     0.329589
 P    -1.829924     0.196850    -0.427313
 C    -0.478123    -1.872988     1.709504
 O    -0.597557    -2.204385     2.802310
 C    -1.484645     0.622722    -3.048919
 H    -0.679384    -0.132951    -3.035972
 H    -2.402924     0.147955    -3.440074
 H    -1.204038     1.442672    -3.726182
 H    -3.294825    -1.277394    -1.524427
 C    -4.569443     0.429433    -1.248234
 H    -4.187172     0.999843    -2.108040
 H    -4.804182     1.173097    -0.466226
 C    -5.847063    -0.320394    -1.617942
 H    -6.615142     0.388994    -1.967135
 H    -5.635879    -0.992861    -2.469195
 C    -6.375376    -1.142503    -0.446901
 H    -7.269963    -1.711012    -0.748968
 H    -6.701160    -0.456236     0.356113
 C    -5.308232    -2.081670     0.106177
 H    -5.063622    -2.847938    -0.651450
 H    -5.692204    -2.624980     0.984823
 C    -4.035517    -1.324691     0.472806
 H    -4.262133    -0.623900     1.295740
 H    -3.262632    -2.014257     0.845592
 H    -3.194098     1.875586     0.631824
 C    -1.246300     2.773199     0.553038
 H    -1.365463     3.133900    -0.477955
 H    -0.197991     2.455374     0.671969
 C    -1.549661     3.884311     1.552861
 H    -0.873058     4.737573     1.379373
 H    -2.573827     4.261569     1.377400
 C    -1.434706     3.397687     2.992805
 H    -1.699500     4.204114     3.696191
 H    -0.381913     3.134251     3.199792
 C    -2.306750     2.170581     3.231286
 H    -3.371033     2.456201     3.142448
 H    -2.171233     1.795388     4.258763
 C    -1.990496     1.063099     2.231040
 H    -0.947489     0.735261     2.366204
 H    -2.625602     0.185254     2.423743
 C     2.258776     1.318643     2.659988
 H     2.879449     0.512829     3.086315
 H     2.923274     2.105243     2.264770
 H     1.662496     1.752307     3.476928
 H     3.118540    -1.239203     1.733041
 C     4.554863    -0.012770     0.694440
 H     4.442686     0.881580     1.321770
 H     4.738529     0.349943    -0.330543
 C     5.768571    -0.816864     1.156509
 H     6.669171    -0.181756     1.131275
 H     5.625347    -1.110534     2.212526
 C     5.970576    -2.066786     0.309113
 H     6.826478    -2.651618     0.683280
 H     6.227349    -1.765199    -0.722787
 C     4.707956    -2.919372     0.281524
 H     4.517139    -3.320211     1.293744
 H     4.845633    -3.793224    -0.375672
 C     3.491894    -2.118906    -0.170248
 H     3.624450    -1.812963    -1.222891
 H     2.581419    -2.731612    -0.141809
 H     0.853902     1.476119    -1.215560
 C     2.533426     0.687218    -2.251691
 H     2.022284    -0.241636    -2.551515
 H     3.590052     0.425402    -2.070596
 C     2.462910     1.721731    -3.371005
 H     2.947893     1.329310    -4.279609
 H     1.403356     1.893746    -3.631558
 C     3.099607     3.043090    -2.953983
 H     3.003165     3.787958    -3.760543
 H     4.183857     2.889786    -2.802025
 C     2.485572     3.574070    -1.663537
 H     1.424438     3.826233    -1.840521
 H     2.981470     4.509509    -1.357017
 C     2.564829     2.546126    -0.537292
 H     3.621856     2.377789    -0.273542
 H     2.065952     2.939608     0.361169
