  92
scf done:    -2606.272487
 C     0.086492     1.634100    -3.071137
 H     0.771927     2.485542    -3.015558
 H     0.306996     0.925671    -3.874588
 C    -1.236992     1.783674    -2.603697
 H    -1.553882     2.739117    -2.176719
 H    -2.044582     1.180219    -3.025583
 H    -0.563509    -0.639855    -2.069464
Rh    -0.130664     0.599979    -1.163735
 C     2.431482    -1.545169    -2.317636
 O     3.073003    -0.015524    -0.156227
 O     1.516782    -1.890625     0.240639
 C    -1.681859    -1.881531     0.882078
 O    -2.321747     0.620159     1.440712
 O    -3.209305    -0.299952    -0.842062
 P    -1.833300    -0.223606     0.085497
 P     1.706948    -0.655259    -0.862336
 C     0.426055     2.087435    -0.080931
 O     0.804677     2.953087     0.562551
 H     2.401573    -0.769835    -3.104402
 C     3.871970    -2.000248    -2.120177
 H     4.221236    -2.520822    -3.025887
 H     4.552052    -1.156863    -1.938377
 H     3.967500    -2.697525    -1.276197
 C     1.509199    -2.683576    -2.740748
 H     0.481418    -2.329985    -2.910356
 H     1.871703    -3.131855    -3.678502
 H     1.476506    -3.472432    -1.974082
 C     3.892935     0.965040    -0.629271
 C     3.574556     1.758736    -1.730010
 H     2.618233     1.618108    -2.236691
 C     5.105728     1.124854     0.064339
 C     5.418645     0.242262     1.232809
 H     4.730546     0.429771     2.072101
 H     5.296861    -0.821407     0.975821
 H     6.445028     0.406980     1.587549
 C     4.470463     2.739973    -2.153112
 H     4.215755     3.363165    -3.013478
 C     5.981150     2.114196    -0.385890
 H     6.930606     2.248960     0.139627
 C     5.675624     2.921417    -1.482399
 H     6.381255     3.687280    -1.811180
 C     2.356459    -2.301468     1.243428
 C     3.035399    -3.510001     1.095803
 H     2.904671    -4.075150     0.171367
 C     2.445334    -1.557893     2.431678
 C     1.689224    -0.277732     2.611000
 H     2.214532     0.565311     2.136242
 H     0.695389    -0.325177     2.143545
 H     1.564264    -0.044407     3.677178
 C     3.851817    -3.984346     2.119086
 H     4.383369    -4.930630     1.995643
 C     3.271854    -2.058160     3.443322
 H     3.355040    -1.492475     4.375504
 C     3.978304    -3.249760     3.295802
 H     4.615803    -3.610478     4.105916
 H    -0.642174    -1.820445     1.246241
 C    -2.598405    -2.183561     2.061243
 H    -2.253833    -3.107131     2.553385
 H    -2.586843    -1.375076     2.803769
 H    -3.637567    -2.342237     1.741349
 C    -1.719494    -2.974808    -0.179548
 H    -1.076701    -2.734842    -1.038243
 H    -1.357849    -3.920388     0.251873
 H    -2.745475    -3.140816    -0.541291
 C    -2.423846     1.986480     1.478679
 C    -2.963199     2.706875     0.413704
 H    -3.311430     2.174272    -0.472209
 C    -1.985050     2.623380     2.649229
 C    -1.421199     1.817867     3.778007
 H    -2.149783     1.077433     4.143699
 H    -0.534318     1.252357     3.455558
 H    -1.132268     2.464430     4.617450
 C    -3.047669     4.095390     0.495845
 H    -3.464929     4.659982    -0.341090
 C    -2.088350     4.014986     2.704747
 H    -1.744570     4.529749     3.605963
 C    -2.606024     4.752572     1.640694
 H    -2.667273     5.840742     1.710122
 C    -4.445677    -0.818966    -0.566038
 C    -5.145671    -0.498763     0.596859
 H    -4.685456     0.156126     1.336442
 C    -5.010894    -1.633734    -1.561459
 C    -4.259109    -1.895424    -2.830185
 H    -4.091697    -0.958799    -3.385450
 H    -3.261148    -2.313847    -2.630590
 H    -4.808918    -2.590306    -3.479171
 C    -6.417715    -1.029871     0.800587
 H    -6.962847    -0.783676     1.714712
 C    -6.287710    -2.150873    -1.328051
 H    -6.740669    -2.791912    -2.089404
 C    -6.989035    -1.863036    -0.157895
 H    -7.985404    -2.282017    -0.001311
