  86
scf done:    -2003.729863
 C    -0.322624    -2.949137    -1.955086
 H    -1.044258    -3.640157    -1.507237
 H    -0.608523    -2.593066    -2.949083
 C     1.054577    -3.060090    -1.620565
 H     1.377644    -3.833322    -0.916324
 H     1.811353    -2.789928    -2.362797
 H     0.645666    -0.576634    -1.992816
Rh     0.220317    -1.327348    -0.645858
 O    -1.657814     1.349456    -1.683841
 C    -3.228828    -0.736722    -1.003520
 C    -1.914013     0.990180     0.908179
 O     1.553715     0.485965     1.740634
 C     3.488794    -1.102163     0.536753
 C     2.521061     1.358316    -0.670560
 P     1.944290    -0.130932     0.241313
 P    -1.607709     0.053227    -0.632383
 C    -0.188009    -2.231248     0.981613
 O    -0.399781    -2.759929     1.978317
 C    -1.390843     1.168101    -3.050327
 H    -0.475277     0.569267    -3.202764
 H    -2.228972     0.667461    -3.567139
 H    -1.252480     2.163909    -3.496138
 H    -3.999146     0.050003    -1.068238
 H    -3.124428    -1.175934    -2.009979
 C    -3.618647    -1.821385    -0.010547
 H    -2.793108    -2.548650     0.069920
 H    -3.737329    -1.384643     0.997085
 C    -4.898036    -2.553637    -0.390684
 H    -4.776110    -2.996888    -1.395836
 H    -5.726154    -1.827206    -0.482437
 C    -5.287200    -3.643618     0.598142
 H    -4.452719    -4.361096     0.689619
 H    -5.404704    -3.196300     1.601152
 C    -6.559182    -4.382066     0.214391
 H    -6.813808    -5.162243     0.947678
 H    -6.456395    -4.870373    -0.768149
 H    -7.417342    -3.693630     0.149722
 H    -1.992731     0.228284     1.703175
 H    -0.966519     1.515443     1.112411
 C    -3.094826     1.947663     0.922892
 H    -3.030256     2.610566     0.044448
 H    -4.038309     1.384627     0.813640
 C    -3.158541     2.782974     2.194283
 H    -2.217214     3.352666     2.300539
 H    -3.201459     2.113644     3.073083
 C    -4.337797     3.744779     2.233004
 H    -4.293269     4.404401     1.348290
 H    -5.275770     3.170802     2.128569
 C    -4.391163     4.585953     3.498041
 H    -5.253600     5.269734     3.497065
 H    -3.481582     5.198209     3.608870
 H    -4.470292     3.952152     4.396090
 C     2.456277     1.177823     2.561537
 H     3.219038     0.506128     2.992378
 H     2.971358     1.997143     2.028828
 H     1.881294     1.617015     3.389878
 H     3.277626    -1.678863     1.455368
 H     3.490875    -1.849193    -0.273827
 C     4.845990    -0.413579     0.615654
 H     5.061773     0.087269    -0.343457
 H     4.840380     0.385476     1.375423
 C     5.975522    -1.386460     0.929195
 H     5.981868    -2.192286     0.172948
 H     5.769110    -1.886269     1.893238
 C     7.348056    -0.730036     0.982827
 H     7.548203    -0.231979     0.017487
 H     7.333395     0.077523     1.736481
 C     8.471595    -1.703995     1.298706
 H     9.449658    -1.200524     1.330366
 H     8.532642    -2.502112     0.541467
 H     8.315955    -2.190350     2.275160
 H     3.452951     1.756534    -0.237401
 H     2.768787     0.991139    -1.681215
 C     1.443300     2.430318    -0.736306
 H     0.481675     1.962032    -0.994431
 H     1.302583     2.867728     0.267536
 C     1.728403     3.538578    -1.738066
 H     1.844280     3.093477    -2.743477
 H     2.697092     4.020721    -1.510083
 C     0.628400     4.591095    -1.776936
 H    -0.337580     4.088467    -1.960143
 H     0.534974     5.050870    -0.776939
 C     0.857992     5.673066    -2.819168
 H     0.048273     6.418554    -2.817825
 H     0.913603     5.245049    -3.833289
 H     1.803769     6.209390    -2.638841
