  82
scf done:    -2599.382919
 C    -0.340888    -3.279423    -1.762031
 H    -1.014482    -4.016457    -1.312453
 H    -0.590648    -3.022726    -2.794836
 C     1.004364    -3.208699    -1.322273
 H     1.356881    -3.875774    -0.529657
 H     1.789343    -2.885139    -2.011212
 H     0.385029    -0.807518    -1.899110
Rh    -0.052387    -1.509891    -0.531533
 O    -2.157759     0.580347    -2.166809
 C    -3.513486    -0.816055    -0.281903
 C    -1.841295     1.437424     0.262885
 O     1.438126    -0.070182     1.983896
 C     3.286368    -1.107950     0.309292
 C     2.046628     1.376371    -0.301403
 P     1.657713    -0.284989     0.345959
 P    -1.870713    -0.120637    -0.681010
 C    -0.533548    -2.367133     1.107131
 O    -0.802825    -2.878114     2.097224
 C    -2.202415    -0.249941    -3.299646
 H    -1.253512    -0.798608    -3.423440
 H    -3.028409    -0.980793    -3.236004
 H    -2.369938     0.396126    -4.172902
 C    -4.623503    -0.000987    -0.002844
 H    -4.503419     1.084522     0.034919
 C    -3.694445    -2.199159    -0.313623
 H    -2.833275    -2.835004    -0.535583
 C    -5.866722    -0.557569     0.241936
 H    -6.735701     0.062870     0.469533
 C    -4.941252    -2.774726    -0.070338
 H    -5.044000    -3.859597    -0.099816
 C    -6.036836    -1.951623     0.211272
 O    -7.279263    -2.401379     0.466115
 C    -7.512628    -3.782246     0.463884
 H    -6.907562    -4.301684     1.227605
 H    -8.575638    -3.922003     0.697569
 H    -7.301812    -4.232696    -0.522047
 C    -1.327889     1.422247     1.567929
 H    -0.973644     0.485204     2.002655
 C    -2.233902     2.657971    -0.288943
 H    -2.616017     2.680123    -1.311215
 C    -1.211933     2.594195     2.296648
 H    -0.804861     2.595154     3.309467
 C    -2.111431     3.846282     0.431680
 H    -2.415452     4.784782    -0.032890
 C    -1.593885     3.819715     1.731380
 O    -1.420798     4.910874     2.503260
 C    -1.741191     6.166579     1.977242
 H    -2.812115     6.245077     1.718470
 H    -1.510979     6.903871     2.756869
 H    -1.142382     6.399518     1.078351
 C     2.256112     0.741602     2.788206
 H     3.323305     0.472315     2.698863
 H     2.133865     1.808843     2.539255
 H     1.943405     0.584288     3.830801
 C     4.151236    -0.976359    -0.787685
 H     3.903400    -0.281346    -1.594338
 C     3.623279    -2.015986     1.315532
 H     2.948349    -2.148932     2.165300
 C     5.319975    -1.717759    -0.864410
 H     5.999838    -1.621908    -1.713102
 C     4.799673    -2.761720     1.254774
 H     5.032884    -3.455801     2.062579
 C     5.657466    -2.615843     0.158313
 O     6.813597    -3.290333     0.001476
 C     7.193999    -4.214630     0.980981
 H     6.453835    -5.027156     1.089255
 H     8.148304    -4.646269     0.653416
 H     7.339461    -3.735198     1.965417
 C     3.219389     2.071548     0.048047
 H     3.984371     1.581282     0.654396
 C     1.123386     2.020050    -1.127695
 H     0.227883     1.488700    -1.450403
 C     3.434086     3.370542    -0.380644
 H     4.339799     3.917420    -0.112067
 C     1.323639     3.327295    -1.564647
 H     0.570353     3.792141    -2.200395
 C     2.477982     4.016701    -1.180028
 O     2.758574     5.284181    -1.534320
 C     1.831588     5.986467    -2.314357
 H     0.854047     6.073819    -1.807617
 H     2.245435     6.991256    -2.466909
 H     1.677718     5.510527    -3.298671
