  88
scf done:    -2305.482279
 C    -0.493472    -2.757917    -2.242568
 H    -1.218280    -3.526102    -1.952088
 H    -0.707388    -2.287196    -3.206333
 C     0.849384    -2.881535    -1.796607
 H     1.128443    -3.734549    -1.170628
 H     1.668997    -2.501739    -2.412909
 H     0.375079    -0.439203    -1.949656
Rh    -0.102725    -1.297992    -0.706806
 C    -2.159729     1.278523    -2.118303
 C    -3.528412    -0.535904    -0.395639
 C    -1.792536     1.331661     0.856222
 C     1.555349     0.448973     2.068514
 C     3.255505    -1.075156     0.340071
 C     2.112994     1.372387    -0.627669
 P     1.670426    -0.148474     0.296205
 P    -1.862978     0.219129    -0.601281
 C    -0.755218    -2.425558     0.687174
 O    -1.199261    -3.137973     1.472312
 H    -2.395909     0.474365    -2.839526
 C    -3.366495     2.204933    -2.028305
 H    -3.514751     2.714722    -2.993969
 H    -4.290240     1.658440    -1.794241
 H    -3.232559     2.984220    -1.262794
 C    -0.916634     1.991374    -2.637236
 H    -0.053506     1.313485    -2.676833
 H    -1.106882     2.367907    -3.654832
 H    -0.628044     2.854486    -2.020405
 C    -3.773848    -1.770779    -1.004743
 H    -2.956393    -2.267898    -1.531783
 C    -4.576599     0.083304     0.297454
 H    -4.414596     1.048139     0.783535
 C    -5.030618    -2.364620    -0.930883
 H    -5.197569    -3.329317    -1.418375
 C    -5.827507    -0.521273     0.378659
 H    -6.629974    -0.020804     0.928305
 C    -6.079095    -1.755609    -0.232731
 C    -7.419121    -2.419702    -0.112247
 H    -7.456445    -3.067728     0.779577
 H    -8.228424    -1.681729    -0.013167
 H    -7.635203    -3.053471    -0.984506
 C    -1.411525     2.674560     0.802558
 H    -1.232880     3.157985    -0.157220
 C    -1.997651     0.757940     2.122754
 H    -2.293202    -0.292181     2.197791
 C    -1.226968     3.413757     1.972878
 H    -0.921530     4.461492     1.899301
 C    -1.821551     1.499123     3.282427
 H    -1.985515     1.021892     4.252820
 C    -1.420283     2.843079     3.232252
 C    -1.201615     3.625291     4.493483
 H    -2.098428     3.612385     5.132674
 H    -0.377612     3.197221     5.087021
 H    -0.952125     4.674074     4.280445
 H     0.741781     1.193660     2.035025
 C     1.112340    -0.682958     2.984096
 H     0.984980    -0.304250     4.010767
 H     0.157519    -1.119183     2.667568
 H     1.864167    -1.487891     3.017207
 C     2.828975     1.098822     2.596033
 H     3.212342     1.890507     1.937126
 H     2.636581     1.547701     3.584389
 H     3.627360     0.351398     2.719086
 C     3.210758    -2.444530     0.627474
 H     2.238664    -2.929672     0.742337
 C     4.508189    -0.473746     0.169857
 H     4.574428     0.593881    -0.051387
 C     4.381672    -3.185878     0.752042
 H     4.319527    -4.253127     0.983039
 C     5.676020    -1.224049     0.278721
 H     6.643341    -0.733259     0.137450
 C     5.636406    -2.592004     0.572071
 C     6.895435    -3.403957     0.656623
 H     7.757557    -2.784161     0.942450
 H     6.800506    -4.220289     1.387557
 H     7.131573    -3.864860    -0.317295
 C     1.823395     2.658886    -0.168826
 H     1.391294     2.808537     0.820849
 C     2.653115     1.238809    -1.916493
 H     2.869963     0.241070    -2.307206
 C     2.061344     3.775326    -0.972601
 H     1.819546     4.770706    -0.588687
 C     2.897721     2.352535    -2.707363
 H     3.319903     2.217409    -3.707368
 C     2.600137     3.646691    -2.253489
 C     2.845858     4.840917    -3.127699
 H     3.893789     4.881782    -3.464294
 H     2.218549     4.804880    -4.033080
 H     2.622246     5.779524    -2.601594
