  90
scf done:    -2455.880115
 C    -1.161958    -2.705272    -2.134285
 H    -1.990645    -3.305395    -1.745011
 H    -1.401772    -2.169255    -3.056016
 C     0.173226    -3.115608    -1.891660
 H     0.358434    -4.026118    -1.312510
 H     0.948659    -2.886026    -2.627173
 H     0.273415    -0.571714    -1.918546
Rh    -0.277377    -1.390883    -0.659145
 O    -1.982977     1.381800    -1.699225
 C    -3.500776    -0.048468     0.032531
 C    -1.388076     1.620065     0.836904
 O     1.903166    -0.513611     1.832807
 C     3.238327    -1.000215    -0.471014
 C     1.774556     1.375417     0.026604
 P     1.621753    -0.435515     0.196637
 P    -1.764797     0.353965    -0.421812
 C    -0.839183    -2.452743     0.815143
 O    -1.169898    -3.122607     1.687951
 C    -2.009426     0.920594    -3.046813
 H    -1.164909     0.217981    -3.178249
 C    -1.793080     2.138753    -3.918737
 H    -0.849758     2.635487    -3.654735
 H    -2.614004     2.859794    -3.782183
 H    -1.754021     1.852670    -4.980159
 C    -3.308837     0.199336    -3.352973
 H    -3.416877    -0.704335    -2.736514
 H    -4.170294     0.854225    -3.150504
 H    -3.337173    -0.104110    -4.410478
 C    -4.412753     0.981892     0.299759
 H    -4.081449     2.022865     0.277368
 C    -3.931382    -1.372717     0.067621
 H    -3.215103    -2.164028    -0.166329
 C    -5.732491     0.669193     0.601030
 H    -6.447619     1.468108     0.812589
 C    -5.256832    -1.704604     0.379156
 C    -5.685620    -3.142600     0.420122
 H    -5.531851    -3.631143    -0.555244
 H    -5.097963    -3.709225     1.159645
 H    -6.747993    -3.241151     0.683396
 C    -6.149292    -0.663448     0.643435
 H    -7.189175    -0.897693     0.888229
 C    -1.331838     2.982582     0.537997
 H    -1.510466     3.315140    -0.485131
 C    -1.139430     1.182615     2.140948
 H    -1.168562     0.111954     2.363058
 C    -1.039355     3.891541     1.552660
 H    -0.990046     4.959189     1.324709
 C    -0.840796     2.084590     3.163750
 C    -0.522255     1.599593     4.547580
 H    -0.814352     2.334356     5.311907
 H    -1.028785     0.649707     4.769992
 H     0.561060     1.422787     4.655879
 C    -0.800953     3.449160     2.850586
 H    -0.568953     4.173086     3.637026
 C     2.082841    -1.772137     2.480243
 H     1.729391    -2.575531     1.805707
 C     1.233653    -1.774463     3.734902
 H     0.172099    -1.634523     3.492401
 H     1.548232    -0.959906     4.405054
 H     1.339864    -2.728298     4.272487
 C     3.556949    -1.983523     2.776521
 H     4.152436    -1.984926     1.853642
 H     3.928757    -1.176640     3.426878
 H     3.712176    -2.943593     3.291719
 C     3.362491    -2.327992    -0.885571
 H     2.476000    -2.964731    -0.895552
 C     4.367634    -0.172367    -0.460392
 H     4.270837     0.865982    -0.132179
 C     4.608254    -2.820209    -1.271852
 H     4.708540    -3.861298    -1.588562
 C     5.619718    -0.648741    -0.856242
 C     6.820161     0.252821    -0.871344
 H     6.639009     1.171732    -0.296413
 H     7.705069    -0.247598    -0.449754
 H     7.076084     0.551167    -1.901484
 C     5.723936    -1.988362    -1.256898
 H     6.697389    -2.381599    -1.564301
 C     2.113498     2.179252     1.117108
 H     2.248315     1.721815     2.097112
 C     1.590785     1.956678    -1.232819
 H     1.311241     1.322515    -2.078874
 C     2.271263     3.551538     0.934482
 H     2.527667     4.183994     1.787913
 C     1.758770     3.329135    -1.427902
 C     1.549628     3.952243    -2.777520
 H     1.599239     3.202909    -3.579854
 H     0.561696     4.438472    -2.838082
 H     2.304155     4.725807    -2.984946
 C     2.103760     4.119500    -0.323916
 H     2.236581     5.197225    -0.455894
