  94
scf done:    -2756.685011
 C     1.141788     1.103577    -3.564526
 H     0.434472     0.632556    -4.252361
 H     0.941976     2.159026    -3.364849
 C     2.446343     0.588848    -3.426132
 H     2.758926    -0.284047    -4.005810
 H     3.265359     1.247172    -3.125136
 H     1.723320     1.395192    -1.095706
Rh     1.258088     0.000106    -1.698261
 O    -0.778330     1.353496     0.684241
 O    -1.686225     1.370620    -1.698935
 O    -1.629296    -0.777762    -0.283457
 O     3.682735    -2.066693    -0.895107
 O     4.108256     0.146160     0.116440
 O     2.472070    -1.305522     1.219253
 P     2.834443    -0.812107    -0.337451
 P    -0.689632     0.496976    -0.700969
 C     0.669098    -1.675975    -2.441016
 O     0.309546    -2.674675    -2.864301
 C     0.178157     2.348861     1.073648
 H     1.186931     1.936301     0.903702
 C    -0.030889     2.574492     2.554415
 H     0.107971     1.635415     3.108699
 H    -1.047788     2.949037     2.749892
 H     0.694557     3.308506     2.932098
 C     0.011006     3.606143     0.244755
 H     0.175484     3.397124    -0.822186
 H    -1.000138     4.025380     0.363840
 H     0.746138     4.361256     0.559548
 C    -3.052445     1.460537    -1.597494
 C    -3.674201     2.034980    -0.489049
 H    -3.063193     2.429637     0.322299
 C    -3.820028     0.956845    -2.644569
 H    -3.311671     0.527810    -3.510113
 C    -5.062394     2.043231    -0.412054
 H    -5.541314     2.467719     0.474593
 C    -5.209113     0.984484    -2.557420
 H    -5.804273     0.574671    -3.378297
 C    -5.856356     1.506788    -1.432649
 C    -7.350173     1.456417    -1.298273
 H    -7.744956     2.361046    -0.812076
 H    -7.655879     0.594838    -0.680205
 H    -7.842805     1.351530    -2.275549
 C    -2.819236    -0.846202     0.401328
 C    -3.884334    -1.489012    -0.224031
 H    -3.745061    -1.877157    -1.233862
 C    -2.963674    -0.356546     1.698452
 H    -2.117180     0.123936     2.182959
 C    -5.105866    -1.601508     0.432314
 H    -5.938750    -2.095865    -0.075472
 C    -4.192561    -0.477945     2.339866
 H    -4.300020    -0.085086     3.355100
 C    -5.290037    -1.088357     1.721244
 C    -6.625850    -1.161133     2.402419
 H    -7.199308    -2.041070     2.075985
 H    -7.235755    -0.270602     2.173069
 H    -6.520724    -1.209667     3.496176
 C     4.766378    -2.677227    -0.163084
 H     4.777909    -2.253005     0.854080
 C     6.061701    -2.336393    -0.867837
 H     6.198787    -1.246957    -0.901912
 H     6.050165    -2.722616    -1.898532
 H     6.917048    -2.781779    -0.337664
 C     4.484565    -4.161790    -0.083858
 H     3.545449    -4.352283     0.455031
 H     4.402035    -4.590914    -1.094164
 H     5.297495    -4.677850     0.448462
 C     3.921433     1.351912     0.739153
 C     3.729167     1.407901     2.118860
 H     3.711884     0.477179     2.686828
 C     3.950610     2.526300    -0.012106
 H     4.109637     2.462280    -1.089300
 C     3.558328     2.643599     2.737954
 H     3.412270     2.680975     3.821097
 C     3.773711     3.752492     0.621563
 H     3.795026     4.668407     0.024550
 C     3.566710     3.835717     2.004335
 C     3.330083     5.160320     2.670216
 H     2.275519     5.471232     2.572216
 H     3.943030     5.954876     2.219815
 H     3.559983     5.119414     3.744452
 C     1.301495    -1.946147     1.524785
 C     0.617509    -1.549981     2.673166
 H     1.029955    -0.740394     3.278384
 C     0.799186    -2.984098     0.741197
 H     1.344680    -3.310439    -0.145695
 C    -0.563946    -2.191488     3.028307
 H    -1.091824    -1.876086     3.932469
 C    -0.398599    -3.598343     1.098307
 H    -0.792851    -4.396560     0.463874
 C    -1.105829    -3.215977     2.241378
 C    -2.424045    -3.842109     2.587403
 H    -2.568709    -3.905278     3.676036
 H    -2.511159    -4.855628     2.170215
 H    -3.254972    -3.241316     2.180595
