  62
scf done:    -1689.473459
 C    -0.838095    -3.036656    -0.858464
 H    -1.582591    -3.492385    -0.197696
 H    -1.163135    -2.954797    -1.899840
 C     0.545297    -3.198803    -0.567003
 H     0.848183    -3.771221     0.315340
 H     1.262394    -3.244129    -1.391403
 H     0.350777    -0.909490    -1.636568
Rh    -0.058669    -1.177712    -0.113225
 O    -1.349565     1.585051    -1.615697
 C    -3.329230    -0.173749    -0.986620
 C    -1.996498     1.550128     0.924008
 O     1.352669     1.189095     1.659388
 C     3.331541    -0.510535     0.760527
 C     2.057418     1.430249    -0.977159
 P     1.688702     0.211821     0.346223
 P    -1.663817     0.413200    -0.468184
 C    -0.470066    -1.539143     1.712906
 O    -0.694389    -1.741417     2.820194
 C    -1.102680     1.220459    -2.948929
 H    -0.369796     0.396074    -3.011702
 H    -2.028648     0.908896    -3.464336
 H    -0.698624     2.102722    -3.466322
 H    -3.946960     0.692564    -1.278716
 H    -3.166530    -0.784053    -1.890953
 C    -4.013451    -1.016487     0.082643
 H    -4.240151    -0.387090     0.960435
 H    -3.305162    -1.786221     0.433289
 C    -5.290353    -1.678092    -0.411508
 H    -6.023421    -0.931135    -0.756046
 H    -5.084063    -2.353888    -1.256728
 H    -5.767313    -2.273048     0.382157
 H    -2.285432     0.904497     1.771768
 H    -1.004700     1.951385     1.193749
 C    -3.008703     2.661804     0.691172
 H    -4.002425     2.226722     0.488805
 H    -2.724825     3.213042    -0.219270
 C    -3.105661     3.615110     1.872622
 H    -3.409298     3.086907     2.790820
 H    -2.134575     4.094139     2.076084
 H    -3.840344     4.413950     1.688421
 C     2.285741     1.667219     2.593110
 H     2.729011     0.850648     3.187950
 H     3.102631     2.245871     2.129734
 H     1.743280     2.332389     3.280828
 H     4.047153     0.270174     1.068557
 H     3.159760    -1.160791     1.635145
 C     3.898619    -1.332034    -0.391971
 H     4.130410    -0.664771    -1.239944
 H     3.116584    -2.020997    -0.750210
 C     5.145226    -2.110715    -0.002807
 H     5.947998    -1.441332     0.346400
 H     4.930111    -2.821788     0.810633
 H     5.538641    -2.687726    -0.853425
 H     2.294020     0.822675    -1.868124
 H     1.079791     1.894925    -1.189446
 C     3.119374     2.491341    -0.732061
 H     4.080426     2.016946    -0.468041
 H     2.825711     3.102127     0.136993
 C     3.318896     3.396736    -1.938937
 H     3.645377     2.819956    -2.819048
 H     2.380808     3.906944    -2.209482
 H     4.077762     4.170225    -1.745511
