  98
scf done:    -2160.883461
 C     0.304590    -3.395170     0.580357
 H     0.903436    -3.896706    -0.186202
 H     0.744101    -3.433434     1.580784
 C    -1.102920    -3.322673     0.439087
 H    -1.589222    -3.769481    -0.433591
 H    -1.724875    -3.304051     1.338139
 H    -0.468573    -1.078190     1.550344
Rh    -0.226840    -1.383329    -0.003614
 O     2.671224    -0.885467     1.697378
 C     3.103688    -1.032356    -0.880916
 C     2.112495     1.372477     0.348163
 O    -1.592276     1.252295    -1.470801
 C    -3.502575    -0.637382    -0.914737
 C    -2.503918     1.125251     1.102882
 P    -1.923352     0.103366    -0.309927
 P     1.846651    -0.447792     0.322955
 C    -0.031837    -1.674651    -1.875424
 O     0.056769    -1.812388    -3.011653
 C     2.062239    -1.165830     2.949003
 H     1.030191    -1.514152     2.762145
 C     2.008089     0.092754     3.795970
 H     1.395403     0.865380     3.309587
 H     3.019756     0.500948     3.945657
 H     1.566141    -0.117390     4.781881
 C     2.863944    -2.276629     3.596297
 H     2.879842    -3.163910     2.947021
 H     3.903825    -1.954698     3.762621
 H     2.427505    -2.559683     4.565881
 H     2.723441    -0.782678    -1.885932
 H     3.046945    -2.129472    -0.800462
 C     4.525159    -0.530771    -0.683126
 H     4.547664     0.564394    -0.815330
 H     4.832393    -0.722162     0.359322
 C     5.554115    -1.148589    -1.635203
 H     5.192631    -0.986120    -2.668570
 C     6.895904    -0.438969    -1.492013
 H     6.803842     0.641242    -1.686206
 H     7.643871    -0.844760    -2.190848
 H     7.293959    -0.560321    -0.470636
 C     5.712224    -2.650349    -1.423763
 H     6.463061    -3.070262    -2.110913
 H     4.772281    -3.196756    -1.591871
 H     6.043949    -2.865239    -0.393985
 H     3.147595     1.548376     0.685919
 H     1.448209     1.765125     1.132210
 C     1.839454     2.052136    -0.986061
 H     2.393310     1.529432    -1.785049
 H     0.770825     1.946454    -1.242612
 C     2.248657     3.528415    -1.025258
 H     3.321922     3.577086    -0.759229
 C     2.097816     4.087562    -2.435198
 H     2.684777     3.505902    -3.162968
 H     2.431655     5.135324    -2.491908
 H     1.045169     4.055897    -2.760351
 C     1.484843     4.376415    -0.014236
 H     1.801049     5.430095    -0.060447
 H     1.643928     4.029821     1.017817
 H     0.401799     4.344539    -0.215102
 C    -2.552275     2.156072    -2.012003
 H    -3.509332     2.055959    -1.467249
 C    -2.778464     1.799601    -3.468841
 H    -3.152808     0.770422    -3.565653
 H    -1.829529     1.867665    -4.022076
 H    -3.506303     2.480883    -3.934962
 C    -2.051922     3.574019    -1.823477
 H    -1.918668     3.802847    -0.756803
 H    -1.084099     3.707748    -2.328481
 H    -2.765775     4.297708    -2.244567
 H    -3.215075    -1.236002    -1.795659
 H    -4.193446     0.146604    -1.263201
 C    -4.168563    -1.527917     0.128258
 H    -3.385186    -2.070870     0.680349
 H    -4.697603    -0.902806     0.870003
 C    -5.152302    -2.548303    -0.448078
 H    -4.588238    -3.167598    -1.171121
 C    -5.665267    -3.468620     0.652855
 H    -4.835261    -3.975456     1.169228
 H    -6.336067    -4.243339     0.250207
 H    -6.231393    -2.899118     1.409050
 C    -6.305004    -1.886608    -1.194350
 H    -7.001912    -2.637789    -1.597296
 H    -5.953830    -1.276087    -2.040168
 H    -6.879459    -1.227921    -0.520766
 H    -2.946876     0.426277     1.831392
 H    -3.320368     1.775007     0.744725
 C    -1.386852     1.926285     1.752317
 H    -0.651451     1.209879     2.152426
 H    -0.852373     2.508889     0.981769
 C    -1.836934     2.873271     2.867402
 H    -2.449677     2.285487     3.576829
 C    -0.628835     3.411955     3.625388
 H    -0.035152     2.597994     4.068805
 H    -0.931621     4.089107     4.438985
 H     0.033487     3.979441     2.950412
 C    -2.693934     4.019546     2.340563
 H    -3.034261     4.671928     3.159492
 H    -3.590614     3.663143     1.811158
 H    -2.116031     4.644503     1.638709
