  80
scf done:    -4287.011770
 C     0.371883    -3.461831    -1.603796
 H    -0.410644    -4.190169    -1.371385
 H     0.414107    -3.165129    -2.655748
 C     1.548007    -3.414543    -0.819388
 H     1.672535    -4.109373     0.016204
 H     2.486032    -3.070349    -1.261750
 H     1.096449    -1.006444    -1.463548
Rh     0.285409    -1.726388    -0.305905
 C    -1.319889    -0.160917    -3.025214
 O    -2.934453    -1.251387    -1.229668
 O    -1.713795     0.913661    -0.475736
 C     1.002889    -0.047934     2.740849
 O     3.072760    -0.496281     1.183877
 O     1.392044     1.257931     0.285810
 P     1.430808    -0.266475     0.961280
 P    -1.411663    -0.551040    -1.223992
 C    -0.538248    -2.695548     1.139038
 O    -0.927007    -3.309419     2.023116
 H    -0.973711    -1.141190    -3.402143
 C    -2.625689     0.192490    -3.728176
 H    -2.462705     0.179136    -4.817599
 H    -3.423371    -0.523606    -3.491069
 H    -2.974837     1.199209    -3.459521
 C    -0.219058     0.862247    -3.289409
 H     0.701316     0.626540    -2.735286
 H     0.022709     0.879596    -4.362972
 H    -0.542745     1.873260    -3.004292
 C    -3.370136    -1.991266    -0.167515
 C    -3.597169    -3.355218    -0.348473
 H    -3.402450    -3.796986    -1.327107
 C    -3.598365    -1.399947     1.077090
 H    -3.407681    -0.334228     1.213438
 C    -4.054870    -4.130708     0.711265
 H    -4.230708    -5.199932     0.584371
 C    -4.053871    -2.173912     2.140049
 H    -4.228053    -1.725263     3.119088
 C    -4.277925    -3.536524     1.953401
Cl    -4.833486    -4.503032     3.277713
 C    -2.564165     1.909601    -0.866378
 C    -3.947154     1.721000    -0.929154
 H    -4.372085     0.739420    -0.721327
 C    -2.019247     3.164917    -1.145148
 H    -0.937231     3.294568    -1.087493
 C    -4.776082     2.780737    -1.285586
 H    -5.856662     2.641102    -1.343720
 C    -2.846105     4.226828    -1.497044
 H    -2.426238     5.209223    -1.718861
 C    -4.224587     4.029314    -1.569630
Cl    -5.259196     5.345968    -2.011552
 H     1.026166    -1.106580     3.062597
 C     1.982360     0.733151     3.609372
 H     1.720088     0.587946     4.669444
 H     3.015707     0.393034     3.461141
 H     1.941472     1.811777     3.403987
 C    -0.433842     0.450222     2.866961
 H    -1.117144    -0.100231     2.205023
 H    -0.783402     0.327661     3.903321
 H    -0.506872     1.516689     2.611159
 C     3.890483    -0.993553     0.211097
 C     3.898433    -0.471642    -1.084278
 H     3.226202     0.347028    -1.344789
 C     4.748460    -2.039345     0.550884
 H     4.721989    -2.432758     1.568391
 C     4.753102    -1.010266    -2.042209
 H     4.762188    -0.616729    -3.059753
 C     5.609271    -2.573144    -0.401591
 H     6.280883    -3.394587    -0.147614
 C     5.603201    -2.059841    -1.698829
Cl     6.665348    -2.730584    -2.892205
 C     1.895890     2.412127     0.817123
 C     3.271276     2.623073     0.934258
 H     3.968905     1.841566     0.633313
 C     1.000097     3.415226     1.191784
 H    -0.070419     3.234824     1.082721
 C     3.745445     3.825477     1.450050
 H     4.817857     3.998535     1.552395
 C     1.471641     4.620002     1.703220
 H     0.778260     5.407715     2.002053
 C     2.845567     4.817995     1.836733
Cl     3.438953     6.312901     2.479361
