  94
scf done:    -2756.532752
 C     0.340145    -3.716903     0.906616
 H     1.011910    -4.308882     0.277515
 H     0.675377    -3.621368     1.942611
 C    -1.049052    -3.691737     0.616392
 H    -1.424386    -4.265417    -0.237847
 H    -1.773685    -3.574609     1.427031
 H    -0.533586    -1.411591     1.576065
Rh    -0.177345    -1.795917     0.068507
 O     1.916496     0.316943     1.798637
 C     3.322010    -1.218962     0.081281
 C     1.818011     1.037506    -0.691599
 O    -1.746934     0.393454    -1.824481
 C    -3.524113    -0.650782     0.000822
 C    -1.592401     1.284831     0.757122
 P    -1.773232    -0.205376    -0.280205
 P     1.679031    -0.455300     0.354217
 C     0.043339    -2.309961    -1.754641
 O     0.098356    -2.626055    -2.856501
 C     1.553485    -0.240374     3.056987
 H     0.507532    -0.591433     2.981132
 C     1.635398     0.891049     4.059278
 H     0.984947     1.721445     3.750720
 H     2.669206     1.263105     4.136447
 H     1.315452     0.547707     5.054373
 C     2.439608    -1.419815     3.409549
 H     2.344955    -2.216758     2.657495
 H     3.496900    -1.115780     3.454025
 H     2.151546    -1.835867     4.386883
 C     3.440933    -2.468703    -0.536350
 H     2.534877    -2.999233    -0.836478
 C     4.486210    -0.558294     0.482596
 H     4.409863     0.416942     0.969896
 C     4.686376    -3.038967    -0.757061
 H     4.790477    -4.012635    -1.239350
 C     5.742417    -1.122342     0.279229
 H     6.630862    -0.582377     0.607873
 C     5.848256    -2.371647    -0.348518
 O     7.014781    -2.999644    -0.593478
 C     8.210100    -2.383422    -0.206636
 H     8.255912    -2.222475     0.885133
 H     9.022566    -3.060955    -0.498607
 H     8.356096    -1.413199    -0.713749
 C     1.501612     0.950589    -2.054489
 H     1.169317     0.001621    -2.479418
 C     2.208328     2.272608    -0.174101
 H     2.428620     2.354495     0.891272
 C     1.576128     2.065511    -2.872986
 H     1.324640     2.009029    -3.933388
 C     2.279537     3.405184    -0.985984
 H     2.578704     4.357427    -0.546371
 C     1.957329     3.306830    -2.343853
 O     1.974392     4.342283    -3.209164
 C     2.340773     5.606741    -2.738106
 H     3.370085     5.615563    -2.337566
 H     2.288326     6.290938    -3.594630
 H     1.653893     5.968510    -1.951571
 C    -2.743911     1.243900    -2.397469
 H    -3.238620     1.817055    -1.591331
 C    -3.777000     0.409615    -3.133764
 H    -4.306144    -0.270538    -2.453746
 H    -3.282434    -0.191746    -3.911982
 H    -4.521410     1.060574    -3.616890
 C    -2.034682     2.207938    -3.328409
 H    -1.289091     2.813962    -2.796141
 H    -1.509743     1.648698    -4.117608
 H    -2.759603     2.884648    -3.804834
 C    -4.510310     0.271388     0.388933
 H    -4.231336     1.301702     0.622882
 C    -3.915123    -1.963995    -0.269848
 H    -3.148580    -2.687866    -0.556235
 C    -5.839460    -0.107759     0.485034
 H    -6.613875     0.599917     0.787010
 C    -5.248167    -2.359233    -0.183460
 H    -5.514166    -3.393143    -0.404079
 C    -6.222085    -1.426524     0.194659
 O    -7.532856    -1.703335     0.312859
 C    -7.979240    -3.001919     0.034924
 H    -7.524218    -3.745872     0.712021
 H    -9.065695    -3.000160     0.188391
 H    -7.766240    -3.294096    -1.008324
 C    -1.894172     1.219631     2.128274
 H    -2.325964     0.305934     2.546019
 C    -1.024543     2.454374     0.258033
 H    -0.744892     2.512978    -0.794662
 C    -1.645218     2.294788     2.962831
 H    -1.873936     2.253529     4.029431
 C    -0.766746     3.546185     1.088853
 H    -0.306427     4.436550     0.660917
 C    -1.069762     3.468433     2.449480
 O    -0.832899     4.451754     3.341753
 C    -0.223809     5.629281     2.895222
 H    -0.840274     6.151976     2.142307
 H    -0.109957     6.278677     3.772541
 H     0.773815     5.435963     2.461769
