  96
scf done:    -2931.191146
 C     0.881154     0.659330    -3.792107
 H     0.353356     0.077926    -4.554838
 H     0.596507     1.715429    -3.760398
 C     2.201072     0.287688    -3.416864
 H     2.678653    -0.573824    -3.894488
 H     2.897314     1.067960    -3.096926
 H     1.132532     1.219660    -1.331461
Rh     0.818110    -0.247374    -1.849089
 O    -1.080211     0.865046     0.555173
 C    -2.191934     1.527193    -1.920097
 C    -2.375359    -1.216817    -0.746673
 O     0.680937    -2.127858     0.732086
 C     3.290982    -2.058787     0.007602
 C     2.010398     0.091414     1.557095
 P     1.750744    -1.016629     0.088323
 P    -1.226811     0.236779    -0.972675
 C     0.505172    -2.024826    -2.494818
 O     0.334758    -3.103327    -2.847178
 C    -2.037112     1.652896     1.240861
 H    -2.063489     2.666813     0.799096
 H    -3.045641     1.219868     1.145455
 C    -1.641699     1.738380     2.698027
 H    -1.499895     0.712280     3.074855
 H    -0.663498     2.242710     2.781256
 C    -2.683393     2.454734     3.544564
 H    -3.646873     1.922764     3.452878
 H    -2.855985     3.467764     3.139149
 C    -2.292601     2.551624     5.010056
 H    -2.152299     1.551014     5.449567
 H    -1.347080     3.102567     5.136823
 H    -3.062832     3.068672     5.601503
 H    -1.814658     2.491456    -1.544509
 H    -1.783291     1.424948    -2.935897
 C    -3.688963     1.487746    -1.966263
 C    -4.334025     0.682310    -2.916126
 H    -3.735317     0.106019    -3.626987
 C    -4.488482     2.246431    -1.102134
 H    -4.019175     2.905170    -0.369448
 C    -5.722800     0.607022    -2.986171
 H    -6.226274    -0.017954    -3.725857
 C    -5.877859     2.187230    -1.157887
 H    -6.501981     2.777731    -0.484873
 C    -6.480751     1.359147    -2.096550
 F    -7.809383     1.294536    -2.153245
 H    -2.916771    -1.343010    -1.696794
 H    -1.678746    -2.061358    -0.647778
 C    -3.301551    -1.181887     0.428910
 C    -2.793695    -1.444885     1.708692
 H    -1.737325    -1.697834     1.811633
 C    -4.657811    -0.858565     0.307011
 H    -5.080935    -0.665841    -0.680142
 C    -3.599413    -1.351732     2.839117
 H    -3.209747    -1.545497     3.840312
 C    -5.477948    -0.759082     1.427997
 H    -6.533795    -0.497143     1.339166
 C    -4.933707    -0.994511     2.684290
 F    -5.707346    -0.882130     3.764150
 C     0.827336    -2.774102     1.980240
 H     1.893914    -2.900541     2.243970
 H     0.375297    -2.151073     2.773761
 C     0.153206    -4.128624     1.912089
 H     0.204568    -4.591302     2.913342
 H    -0.919010    -3.979453     1.695174
 C     0.761957    -5.055034     0.868814
 H     1.830587    -5.212127     1.103071
 H     0.736037    -4.548166    -0.109489
 C     0.053862    -6.396031     0.774662
 H     0.085822    -6.938553     1.733421
 H    -1.006624    -6.266439     0.505376
 H     0.512520    -7.041743     0.010989
 H     3.302091    -2.753691     0.860485
 H     3.166200    -2.664991    -0.903758
 C     4.569402    -1.276047    -0.023563
 C     4.827725    -0.354620    -1.047270
 H     4.085308    -0.215056    -1.834705
 C     5.524430    -1.431687     0.987430
 H     5.347092    -2.152059     1.790893
 C     5.992530     0.404367    -1.052291
 H     6.191977     1.136956    -1.836188
 C     6.700926    -0.684051     0.993566
 H     7.450814    -0.799761     1.778149
 C     6.913818     0.234658    -0.025821
 F     8.025373     0.970306    -0.017368
 H     0.981032     0.219066     1.926884
 H     2.583847    -0.464207     2.315523
 C     2.627798     1.435218     1.300954
 C     3.983671     1.673550     1.545831
 H     4.613217     0.868658     1.929500
 C     1.846524     2.490740     0.810974
 H     0.786439     2.315702     0.623143
 C     4.557524     2.917167     1.296091
 H     5.618456     3.101234     1.474813
 C     2.403013     3.741295     0.559133
 H     1.802121     4.568012     0.175857
 C     3.757336     3.937167     0.799119
 F     4.297281     5.132159     0.554371
