  88
scf done:    -2305.456995
 C     0.794710     2.803363     0.007240
 H     1.438105     2.862897     0.886305
 H     1.264929     3.143083    -0.920297
 C    -0.598563     2.837989     0.162664
 H    -1.038865     2.912308     1.159796
 H    -1.231629     3.215588    -0.644688
 H     0.167354     0.689308     1.379745
Rh     0.020203     0.771904    -0.217276
 C    -1.938678    -1.685525     1.607053
 C    -3.020506     1.031466     1.144389
 C    -3.095698    -1.053765    -0.943051
 C     2.292799    -1.433022    -1.867696
 C     3.360130     1.014337    -0.621174
 C     2.762453    -1.368620     1.008303
 P     2.115931    -0.312052    -0.366624
 P    -2.014652    -0.282878     0.352295
 C    -0.140426     0.914723    -2.098271
 O    -0.206081     1.030068    -3.241047
 H    -1.232100    -1.294032     2.359598
 C    -3.227190    -2.103735     2.302535
 H    -2.993021    -2.856610     3.073040
 H    -3.748477    -1.273526     2.797016
 H    -3.920490    -2.575506     1.591404
 C    -1.311214    -2.902467     0.935273
 H    -0.394267    -2.650081     0.391038
 H    -1.057053    -3.663229     1.689911
 H    -2.015269    -3.356709     0.221372
 C    -2.952739     1.178766     2.536419
 H    -2.368108     0.471826     3.127966
 C    -3.702312     2.006581     0.380586
 C    -3.730418     1.994853    -1.120350
 H    -4.461857     1.277846    -1.522429
 H    -2.752474     1.709911    -1.534680
 H    -3.991213     2.990488    -1.505397
 C    -3.595040     2.226996     3.189162
 H    -3.526130     2.315295     4.275888
 C    -4.347855     3.046208     1.059447
 H    -4.878988     3.800316     0.471793
 C    -4.313736     3.159143     2.446450
 H    -4.826771     3.986937     2.941404
 C    -2.395215    -1.518937    -2.065778
 H    -1.324007    -1.322548    -2.121705
 C    -4.491440    -1.278032    -0.873283
 C    -5.406325    -0.781097     0.213120
 H    -5.965894     0.102605    -0.135679
 H    -4.886957    -0.482263     1.125159
 H    -6.148391    -1.551622     0.469911
 C    -3.018038    -2.206875    -3.100152
 H    -2.434050    -2.553120    -3.955720
 C    -5.100776    -1.972081    -1.930217
 H    -6.179734    -2.145413    -1.880053
 C    -4.388384    -2.437720    -3.028995
 H    -4.905187    -2.974437    -3.828291
 H     1.915465    -0.796828    -2.686955
 C     3.680098    -1.939895    -2.232508
 H     3.625331    -2.491799    -3.185163
 H     4.417414    -1.135944    -2.356921
 H     4.053877    -2.641147    -1.472513
 C     1.333759    -2.606125    -1.714101
 H     0.313987    -2.266819    -1.497546
 H     1.311116    -3.202578    -2.639614
 H     1.651437    -3.270429    -0.894857
 C     3.688131     1.390396    -1.931686
 H     3.262484     0.846388    -2.776732
 C     3.863844     1.774127     0.459906
 C     3.498834     1.498746     1.890278
 H     4.077740     0.663079     2.312409
 H     2.436588     1.228165     1.990565
 H     3.691354     2.385661     2.510244
 C     4.537939     2.461788    -2.189907
 H     4.776855     2.729852    -3.221666
 C     4.721727     2.842665     0.175300
 H     5.114225     3.430750     1.009693
 C     5.070854     3.185879    -1.127530
 H     5.741377     4.028596    -1.311025
 C     1.766152    -1.818511     1.885811
 H     0.758969    -1.430038     1.736755
 C     4.099115    -1.774410     1.228976
 C     5.301381    -1.275663     0.474516
 H     5.052032    -0.623479    -0.364591
 H     5.903417    -2.116064     0.096927
 H     5.948747    -0.695709     1.152320
 C     2.036849    -2.694155     2.929832
 H     1.231866    -3.025024     3.590348
 C     4.350702    -2.661353     2.287328
 H     5.382943    -2.979722     2.460663
 C     3.344554    -3.130601     3.123577
 H     3.586735    -3.821165     3.935176
