  90
scf done:    -2455.867354
 C    -0.907421    -2.342700    -2.210985
 H    -1.640166    -3.064230    -1.837283
 H    -1.294235    -1.677183    -2.987641
 C     0.474841    -2.638502    -2.162859
 H     0.802442    -3.603898    -1.763193
 H     1.151985    -2.212387    -2.908680
 H     0.238309    -0.142186    -1.763254
Rh    -0.021705    -1.192607    -0.611876
 O    -2.294590     1.073884    -1.573282
 C    -3.440427    -0.960996    -0.373806
 C    -2.223310     1.183468     1.143972
 O     1.902280     0.317731     1.824819
 C     3.511605    -0.865926    -0.019744
 C     2.003913     1.574578    -0.491475
 P     1.844123    -0.116512     0.207834
 P    -1.936315     0.077679    -0.299888
 C    -0.285925    -2.597708     0.656640
 O    -0.443997    -3.515437     1.327064
 C    -1.338530     2.047189    -2.011799
 H    -0.395458     1.891661    -1.461913
 C    -1.865426     3.434018    -1.702108
 H    -2.028465     3.555857    -0.621700
 H    -2.818362     3.614822    -2.223923
 H    -1.138408     4.193523    -2.025376
 C    -1.081213     1.814669    -3.484865
 H    -0.667864     0.807539    -3.641252
 H    -2.017257     1.903716    -4.058313
 H    -0.359823     2.550726    -3.869846
 C    -4.094736    -1.085984    -1.605953
 H    -3.742790    -0.490367    -2.449423
 C    -3.880616    -1.711962     0.735961
 C    -3.256139    -1.601493     2.097488
 H    -3.642768    -0.723520     2.639741
 H    -2.166020    -1.480773     2.051189
 H    -3.473821    -2.495807     2.697764
 C    -5.182322    -1.940559    -1.754685
 H    -5.681280    -2.023447    -2.723137
 C    -4.974236    -2.568118     0.559447
 H    -5.321077    -3.155459     1.414296
 C    -5.624232    -2.687565    -0.665627
 H    -6.473998    -3.366745    -0.768249
 C    -1.183327     1.267519     2.073130
 H    -0.284424     0.667156     1.916806
 C    -3.400438     1.945591     1.331770
 C    -4.579278     1.880597     0.405436
 H    -5.151469     0.952792     0.566392
 H    -4.267006     1.877993    -0.646252
 H    -5.255650     2.729070     0.579622
 C    -1.272572     2.098268     3.187302
 H    -0.443526     2.152062     3.896941
 C    -3.464814     2.778643     2.455178
 H    -4.365824     3.379054     2.609435
 C    -2.420944     2.860809     3.375143
 H    -2.509960     3.524545     4.238918
 C     2.516184    -0.439925     2.862917
 H     3.580673    -0.588364     2.602581
 C     1.872946    -1.799760     3.045317
 H     2.006447    -2.429360     2.155153
 H     0.795424    -1.700431     3.243675
 H     2.335663    -2.323378     3.895040
 C     2.432330     0.417525     4.109402
 H     2.882201     1.404903     3.931199
 H     1.381875     0.562404     4.405417
 H     2.963321    -0.062981     4.944198
 C     3.523923    -2.193916    -0.458825
 H     2.561811    -2.673102    -0.657265
 C     4.731654    -0.201844     0.247005
 C     4.816074     1.222362     0.716365
 H     4.022275     1.471468     1.431677
 H     4.702575     1.922603    -0.126571
 H     5.791516     1.415600     1.184509
 C     4.717442    -2.882452    -0.655286
 H     4.703258    -3.918410    -1.001137
 C     5.919884    -0.914304     0.043700
 H     6.870947    -0.414346     0.247591
 C     5.922544    -2.233339    -0.404767
 H     6.872004    -2.753993    -0.552449
 C     1.602249     2.659775     0.296197
 H     1.302041     2.482823     1.328974
 C     2.397809     1.784906    -1.830564
 C     2.850241     0.669119    -2.725668
 H     2.194154    -0.208685    -2.628179
 H     3.869068     0.337439    -2.469909
 H     2.850478     0.988961    -3.776894
 C     1.579836     3.951885    -0.221040
 H     1.252813     4.782888     0.408098
 C     2.372356     3.094233    -2.325473
 H     2.677788     3.266356    -3.361397
 C     1.967814     4.170963    -1.539877
 H     1.954211     5.179065    -1.961315
