  90
scf done:    -2304.554449
 C    -2.624461    -1.521783    -2.322286
 H    -3.649927    -1.570587    -1.944235
 H    -2.504789    -0.909790    -3.220254
 C    -1.744099    -2.610099    -2.102899
 H    -2.098208    -3.488052    -1.553951
 H    -0.961363    -2.833097    -2.833092
 H    -0.359464    -0.438555    -2.032287
Rh    -1.185058    -0.979306    -0.793300
 O    -0.784130     1.841186     1.052097
 O    -0.393325     2.133460    -1.386646
 O    -2.738730     2.035866    -0.398416
 O     1.000024    -2.665819     1.167017
 O     1.982554    -2.126298    -1.035441
 O     1.667949    -0.344698     0.765580
 P     0.854329    -1.530242     0.003678
 P    -1.296463     1.243732    -0.374184
 C    -2.274066    -1.621018     0.649453
 O    -2.950656    -2.010177     1.489427
 C    -0.890154     1.126420     2.283176
 H    -0.659061     0.064750     2.083890
 C    -2.292572     1.246455     2.847618
 H    -3.036104     0.811550     2.165437
 H    -2.552127     2.304840     3.002039
 H    -2.365681     0.719918     3.810915
 C     0.173664     1.687670     3.200175
 H     1.158600     1.592830     2.724456
 H    -0.016744     2.751923     3.408504
 H     0.187247     1.141963     4.155149
 C    -0.353226     3.558475    -1.364603
 H    -0.141234     3.853195    -2.404864
 H    -1.347225     3.951699    -1.095917
 C     0.711813     4.105722    -0.433773
 H     0.747768     5.199665    -0.585822
 H     0.399305     3.938323     0.608334
 C     2.090439     3.501403    -0.652632
 H     2.382591     3.619861    -1.711659
 H     2.024947     2.416097    -0.473728
 C     3.152147     4.111596     0.246772
 H     3.261793     5.193361     0.066533
 H     2.893193     3.981196     1.309994
 H     4.137479     3.647306     0.088781
 C    -3.746351     1.685247    -1.337666
 H    -4.095546     2.625436    -1.796765
 H    -3.322608     1.055058    -2.135858
 C    -4.885474     0.963912    -0.649340
 H    -5.624983     0.668182    -1.414486
 H    -4.487764     0.025070    -0.227017
 C    -5.557571     1.779185     0.446034
 H    -6.036386     2.667239    -0.003548
 H    -4.778534     2.167515     1.122002
 C    -6.580360     0.981357     1.237605
 H    -7.378687     0.589627     0.586415
 H    -6.109138     0.117131     1.733553
 H    -7.058078     1.592836     2.018068
 C     0.428871    -3.968166     1.000317
 H    -0.353262    -3.903254     0.220328
 C    -0.213628    -4.352118     2.316103
 H    -0.999768    -3.635132     2.590756
 H     0.541625    -4.364178     3.117037
 H    -0.664552    -5.353327     2.248355
 C     1.507969    -4.934545     0.552720
 H     1.962759    -4.590899    -0.386065
 H     2.298837    -4.999744     1.316005
 H     1.088109    -5.940267     0.400006
 C     2.045574    -1.746631    -2.403420
 H     2.607055    -2.550757    -2.905284
 H     1.026639    -1.724432    -2.823203
 C     2.719944    -0.406100    -2.613458
 H     2.638377    -0.155804    -3.686167
 H     2.142780     0.370158    -2.080869
 C     4.180226    -0.371732    -2.186825
 H     4.745165    -1.122421    -2.767511
 H     4.253323    -0.695562    -1.136080
 C     4.820768     0.996364    -2.353515
 H     4.807074     1.319961    -3.406728
 H     4.281153     1.761593    -1.773276
 H     5.869159     0.999057    -2.017767
 C     2.903072    -0.598762     1.430026
 H     2.688388    -0.924200     2.461478
 H     3.432918    -1.426185     0.929181
 C     3.743424     0.655907     1.413243
 H     3.858589     0.985305     0.368862
 H     3.200709     1.466131     1.927741
 C     5.112277     0.458297     2.046506
 H     5.630828    -0.373246     1.536690
 H     4.990343     0.136005     3.095811
 C     5.976737     1.707412     1.989590
 H     6.155243     2.018287     0.947629
 H     5.492309     2.552431     2.504208
 H     6.957295     1.545434     2.461894
