  84
scf done:    -2225.998974
 C    -1.442036     0.655386    -3.047239
 H    -2.008549    -0.152575    -3.517951
 H    -2.031058     1.550266    -2.831220
 C    -0.047396     0.762245    -3.251885
 H     0.466827     0.041022    -3.894070
 H     0.431743     1.743610    -3.208205
 H    -0.477724     1.496968    -0.838857
Rh    -0.433842    -0.033461    -1.262761
 O    -2.838708     1.118239     0.876510
 O    -3.570725    -0.643200    -0.680122
 O    -2.216336    -1.178318     1.426550
 O     2.356892    -1.392802     0.054270
 O     2.626713     1.038676    -0.260766
 O     1.157631     0.111116     1.602890
 P     1.420488    -0.047210     0.004087
 P    -2.230483    -0.191883     0.112366
 C    -0.345638    -1.859013    -1.839284
 O    -0.278408    -2.946626    -2.192795
 C    -2.227729     1.722940     2.008016
 H    -3.058769     2.153281     2.590263
 H    -1.748798     0.949233     2.629709
 C    -1.233246     2.803081     1.628327
 H    -0.895369     3.287352     2.562023
 H    -0.342704     2.327511     1.188829
 C    -1.795029     3.839495     0.667592
 H    -2.665584     4.336686     1.131683
 H    -2.184006     3.314178    -0.219721
 C    -0.769929     4.876034     0.240608
 H    -0.349628     5.413764     1.106340
 H     0.069880     4.400723    -0.290089
 H    -1.207149     5.625359    -0.436576
 C    -4.854767    -0.747213    -0.040458
 H    -4.698478    -0.757689     1.051278
 C    -5.467965    -2.062057    -0.472677
 H    -4.830457    -2.905513    -0.173170
 H    -5.583596    -2.088166    -1.567069
 H    -6.459721    -2.194327    -0.014596
 C    -5.688082     0.458844    -0.422638
 H    -5.186254     1.380483    -0.099280
 H    -5.824933     0.496429    -1.514422
 H    -6.680533     0.409615     0.051024
 C    -1.365267    -2.317657     1.544820
 H    -0.416186    -2.098321     1.024009
 C    -2.020908    -3.527281     0.907254
 H    -2.226708    -3.351527    -0.158213
 H    -2.973634    -3.756229     1.409867
 H    -1.365940    -4.407921     0.985420
 C    -1.087619    -2.498867     3.020637
 H    -0.637670    -1.584442     3.430651
 H    -2.021501    -2.704613     3.566089
 H    -0.392494    -3.335251     3.185693
 C     2.997564    -1.850898    -1.129549
 H     2.863116    -2.944678    -1.154541
 H     2.486408    -1.437581    -2.018139
 C     4.468444    -1.487059    -1.144081
 H     4.901606    -1.866369    -2.086850
 H     4.556717    -0.389100    -1.171708
 C     5.246796    -2.034039     0.043540
 H     5.157288    -3.135031     0.064024
 H     4.770525    -1.675670     0.970832
 C     6.713084    -1.634961     0.029108
 H     7.222112    -2.003354    -0.876369
 H     6.826081    -0.538842     0.044789
 H     7.252746    -2.037060     0.899981
 C     2.434305     2.306903    -0.889337
 H     1.363629     2.405775    -1.142959
 C     3.248574     2.331795    -2.166147
 H     2.935475     1.515788    -2.833231
 H     4.320430     2.209797    -1.944921
 H     3.110515     3.285676    -2.697066
 C     2.826109     3.391151     0.093924
 H     2.197537     3.345536     0.994845
 H     3.878014     3.273322     0.397045
 H     2.703858     4.387358    -0.356588
 C     2.222394     0.234863     2.562776
 H     3.125142     0.573109     2.027527
 C     2.493463    -1.108924     3.209385
 H     2.730407    -1.857690     2.442473
 H     1.615754    -1.452696     3.776080
 H     3.343378    -1.031163     3.904454
 C     1.801558     1.297948     3.555055
 H     1.632461     2.259774     3.050910
 H     0.865573     1.004303     4.055271
 H     2.576460     1.438057     4.323375
