  96
scf done:    -2534.388564
 C     1.515179     0.259207    -3.304781
 H     2.102982     1.159335    -3.508910
 H     2.105213    -0.660136    -3.266773
 C     0.152048     0.214434    -3.673592
 H    -0.295419     1.083284    -4.167588
 H    -0.315760    -0.739348    -3.933452
 H     0.401114    -1.148492    -1.516943
Rh     0.321865     0.440948    -1.511739
 O     1.646992    -1.416845     0.791104
 C     3.567690    -0.311476    -0.794797
 C     2.321439     1.146746     1.438784
 O    -2.012143     1.038834     0.881036
 C    -3.244464     0.216657    -1.362927
 C    -1.857222    -1.558189     0.450098
 P    -1.663172     0.039457    -0.417204
 P     1.967921     0.010047     0.029966
 C     0.217880     2.346619    -1.575769
 O     0.168495     3.491461    -1.652355
 C     2.219536    -1.911753     1.983876
 H     3.155073    -2.454809     1.750189
 H     2.469826    -1.085315     2.669613
 C     1.201052    -2.832649     2.619908
 H     1.625608    -3.246272     3.551118
 H     0.339606    -2.213166     2.908838
 C     0.762596    -3.950817     1.682579
 H     1.612904    -4.641545     1.544672
 H     0.556047    -3.517601     0.690898
 C    -0.456131    -4.744263     2.141197
 H    -0.400312    -4.937424     3.228267
 H    -1.725781    -2.816432     3.559162
 H    -0.429357    -5.737250     1.661069
 C     3.950680    -1.644051    -0.984135
 H     3.327601    -2.438120    -0.567236
 C     4.320716     0.726883    -1.384100
 C     3.922884     2.167186    -1.257434
 H     4.042122     2.541045    -0.228154
 H     2.861997     2.304091    -1.516986
 H     4.525940     2.802078    -1.920666
 C     5.096115    -1.964208    -1.708199
 H     5.382740    -3.010027    -1.841681
 C     5.466830     0.381370    -2.107546
 H     6.058109     1.179771    -2.564797
 C     5.863468    -0.944852    -2.265442
 H     6.763890    -1.180179    -2.837767
 C     1.199535     1.891297     1.828404
 H     0.268553     1.741155     1.278703
 C     3.529381     1.280562     2.166537
 C     4.790502     0.514070     1.882053
 H     5.329476     0.921698     1.013220
 H     4.604502    -0.542270     1.653887
 H     5.465292     0.566235     2.747787
 C     1.243176     2.781279     2.895751
 H     0.349920     3.343556     3.176505
 C     3.552148     2.194689     3.229589
 H     4.481192     2.311462     3.794352
 C     2.436082     2.942397     3.593070
 H     2.499778     3.642560     4.429632
 C    -2.257863     2.414655     0.641388
 H    -1.320242     2.982813     0.779114
 H    -2.587630     2.576428    -0.399097
 C    -3.321830     2.910221     1.597449
 H    -3.500011     3.978390     1.382024
 H    -4.268280     2.388205     1.374571
 C    -2.964840     2.727950     3.065504
 H    -2.032146     3.278952     3.281606
 H    -2.733263     1.665192     3.244998
 C    -4.063960     3.186534     4.009211
 H    -4.297043     4.254273     3.867208
 H    -4.995230     2.622917     3.837544
 H    -3.780281     3.045262     5.063148
 C    -3.116161     0.694272    -2.671079
 H    -2.107167     0.884843    -3.042132
 C    -4.534321    -0.035357    -0.835859
 C    -4.788757    -0.552876     0.550966
 H    -4.156169    -0.052807     1.294065
 H    -4.566424    -1.630109     0.615595
 H    -5.844225    -0.410530     0.822595
 C    -4.226072     0.913300    -3.482561
 H    -4.095670     1.284014    -4.501764
 C    -5.636029     0.195342    -1.668587
 H    -6.637402     0.004856    -1.272250
 C    -5.495296     0.657738    -2.975322
 H    -6.382648     0.822777    -3.591614
 C    -1.853911    -1.585379     1.796041
 H    -1.731150    -0.653348     2.352977
 C    -2.039381    -2.812817    -0.318194
 C    -2.221034    -2.771656    -1.807433
 H    -1.453358    -2.141757    -2.283280
 H    -3.198326    -2.346896    -2.084406
 H    -2.154059    -3.782578    -2.232614
 C    -2.179407    -2.831829     2.555119
 H    -3.273670    -2.799995     2.733196
 C    -2.038664    -3.987755     0.343572
 H    -2.131165    -4.912116    -0.237619
 C    -1.839772    -4.137708     1.825151
 H    -2.562158    -4.894136     2.176788
