 100
scf done:    -2835.244116
 C    -1.581767    -2.829297    -2.549227
 H    -2.189007    -3.619810    -2.099333
 H    -2.119752    -2.185894    -3.250049
 C    -0.185505    -2.991812    -2.668060
 H     0.284953    -3.914489    -2.317218
 H     0.361675    -2.474866    -3.460028
 H    -0.549048    -0.514291    -2.182904
Rh    -0.601791    -1.615339    -1.037581
 O    -3.159162     0.506996    -1.377259
 O    -3.556490    -1.300362     0.343173
 O    -2.158680     0.787293     0.850657
 O     1.997828    -0.505410     0.909580
 O     2.524803    -0.493670    -1.563197
 O     0.908249     1.174697    -0.551696
 P     1.227475    -0.438308    -0.518553
 P    -2.339172    -0.392715    -0.313277
 C    -0.634419    -2.993277     0.304292
 O    -0.675020    -3.817701     1.096938
 C    -3.335856     1.920862    -1.360772
 H    -4.208331     2.110333    -2.004403
 H    -3.590120     2.251469    -0.342573
 C    -2.105414     2.639363    -1.872967
 H    -1.235116     2.299587    -1.288453
 H    -1.915702     2.327767    -2.914519
 C    -2.226439     4.153604    -1.786361
 H    -2.463790     4.437084    -0.745735
 H    -3.085509     4.492876    -2.392146
 C    -0.965054     4.877529    -2.230148
 H    -0.100505     4.588972    -1.610924
 H    -0.712920     4.637279    -3.275378
 H    -1.078448     5.969624    -2.157367
 C    -4.801336    -0.778599     0.627463
 C    -5.012286    -0.094156     1.821665
 H    -4.180875     0.036672     2.516205
 C    -5.834193    -0.991783    -0.297319
 C    -5.567674    -1.735546    -1.569182
 H    -4.879727    -1.165808    -2.213248
 H    -5.083058    -2.702813    -1.366548
 H    -6.498408    -1.916745    -2.123490
 C    -6.280867     0.403204     2.113354
 H    -6.450440     0.939131     3.049993
 C    -7.096854    -0.484960     0.023920
 H    -7.919531    -0.642476    -0.678987
 C    -7.324436     0.209245     1.211497
 H    -8.322235     0.594124     1.434094
 C    -1.413763     0.651678     1.986742
 C    -1.329236    -0.559331     2.674596
 H    -1.878651    -1.428940     2.311547
 C    -0.772538     1.807814     2.462375
 C    -0.923532     3.104025     1.730942
 H    -0.561025     3.014552     0.697073
 H    -1.981980     3.403876     1.676433
 H    -0.358836     3.905573     2.224906
 C    -0.564865    -0.641439     3.838295
 H    -0.503559    -1.591784     4.373725
 C    -0.014095     1.693452     3.629106
 H     0.493989     2.583551     4.010489
 C     0.104243     0.482434     4.312393
 H     0.705467     0.424861     5.222339
 C     2.194095    -1.701616     1.657892
 H     1.438700    -1.715862     2.459341
 H     2.026115    -2.585981     1.020866
 C     3.596120    -1.719615     2.225891
 H     3.690326    -2.628703     2.846076
 H     4.320507    -1.826676     1.402158
 C     3.939855    -0.485312     3.046815
 H     3.214444    -0.377944     3.873046
 H     3.807300     0.402911     2.408413
 C     5.358255    -0.518761     3.590191
 H     5.518818    -1.386425     4.250774
 H     6.089174    -0.590626     2.768761
 H     5.593464     0.387511     4.168974
 C     3.822266    -0.792773    -1.218873
 C     4.669242     0.199041    -0.729862
 H     4.287264     1.211713    -0.601585
 C     4.268861    -2.110355    -1.405990
 C     3.339863    -3.153238    -1.944860
 H     2.449624    -3.272274    -1.307618
 H     2.960979    -2.867860    -2.938119
 H     3.842210    -4.126375    -2.026405
 C     5.986107    -0.116884    -0.403492
 H     6.645689     0.662123    -0.014506
 C     5.596161    -2.399024    -1.073396
 H     5.961061    -3.420467    -1.211125
 C     6.451563    -1.419258    -0.571455
 H     7.482217    -1.674359    -0.314996
 C     1.859939     2.163607    -0.455599
 C     2.346093     2.534326     0.796083
 H     1.985690     1.998092     1.674146
 C     2.277342     2.797714    -1.634790
 C     1.755735     2.351335    -2.964915
 H     2.176070     1.368724    -3.230214
 H     0.663652     2.228499    -2.942080
 H     2.016406     3.070351    -3.753126
 C     3.283591     3.559615     0.890830
 H     3.673511     3.849316     1.869321
 C     3.213821     3.829859    -1.507008
 H     3.556128     4.341268    -2.410610
 C     3.718988     4.208299    -0.263995
 H     4.452920     5.014656    -0.198377
