  84
scf done:    -2377.282232
 C     0.207571    -3.866404     0.128053
 H     0.711568    -4.304471    -0.738861
 H     0.769647    -3.951058     1.062222
 C    -1.205337    -3.780017     0.152237
 H    -1.782970    -4.162319    -0.695312
 H    -1.739081    -3.805518     1.105813
 H    -0.325627    -1.724035     1.386996
Rh    -0.362465    -1.813940    -0.203140
 O     1.530868     0.458038     1.264957
 C     2.956034    -1.775471     0.661951
 C     2.338812     0.208152    -1.323754
 O    -1.676412     1.016394    -1.121186
 C    -3.712284    -0.601293    -0.249606
 C    -1.976572     0.694402     1.601964
 P    -1.941064    -0.186186    -0.000180
 P     1.593713    -0.703900     0.085687
 C    -0.407572    -1.947766    -2.113089
 O    -0.432352    -2.019278    -3.257159
 C     2.601366     1.350327     1.524363
 H     2.679197     1.439898     2.621239
 H     3.559821     0.929176     1.171959
 C     2.371845     2.713621     0.901510
 H     2.177679     2.586020    -0.175150
 H     1.459416     3.157087     1.334206
 C     3.551502     3.654100     1.095162
 H     4.455399     3.189499     0.662857
 H     3.759887     3.773444     2.173552
 C     3.330347     5.017576     0.460631
 H     3.154356     4.922694    -0.623010
 H     2.451479     5.521859     0.893333
 H     4.198181     5.679218     0.602345
 C     3.582821    -2.653740    -0.232288
 C     3.272040    -1.846194     2.022571
 C     4.855653    -3.617870     1.580979
 C     4.220526    -2.761251     2.477844
 C     4.531348    -3.563981     0.224341
 H     3.319893    -2.628129    -1.293634
 H     5.017415    -4.240963    -0.482390
 H     5.598057    -4.335164     1.938806
 H     4.461067    -2.807093     3.542868
 H     2.758783    -1.188096     2.727435
 C     3.718226     0.365414    -1.510130
 C     1.452158     0.872939    -2.182247
 C     3.313402     1.854448    -3.369932
 C     1.938718     1.695164    -3.195851
 C     4.201764     1.184483    -2.529142
 H     4.421436    -0.154710    -0.855301
 H     5.279673     1.300943    -2.665996
 H     3.694611     2.497831    -4.166802
 H     1.237950     2.214924    -3.853695
 H     0.374250     0.765326    -2.028205
 C    -2.596052     1.974746    -1.620993
 H    -2.455363     1.984541    -2.715496
 H    -3.633237     1.654719    -1.433376
 C    -2.352005     3.360126    -1.055653
 H    -3.091457     4.044225    -1.508646
 H    -2.564927     3.354482     0.026512
 C    -0.942474     3.879564    -1.305669
 H    -0.783167     3.984439    -2.393711
 H    -0.215005     3.118775    -0.978087
 C    -0.653933     5.197862    -0.608327
 H    -1.350121     5.988578    -0.931606
 H    -0.758822     5.097352     0.484606
 H     0.369081     5.547962    -0.812105
 C    -4.015480    -1.726446    -1.024001
 C    -4.761783     0.175135     0.263804
 C    -6.376378    -1.285833    -0.782033
 C    -6.085985    -0.167033    -0.000927
 C    -5.339839    -2.064715    -1.294047
 H    -3.193732    -2.342446    -1.397380
 H    -5.563098    -2.946879    -1.898682
 H    -7.415754    -1.554597    -0.986245
 H    -6.896220     0.442657     0.406318
 H    -4.541609     1.047513     0.884423
 C    -1.219835     1.853612     1.784581
 C    -2.634346     0.128685     2.701495
 C    -1.820266     1.904994     4.123167
 C    -2.559707     0.733797     3.953183
 C    -1.147827     2.460578     3.036521
 H    -0.666913     2.268008     0.942383
 H    -0.554385     3.369780     3.164258
 H    -1.763346     2.379370     5.105857
 H    -3.081207     0.286612     4.802911
 H    -3.207222    -0.794376     2.578581
