  68
scf done:    -2292.003555
 C     0.047357    -3.032205     2.371361
 H     0.646863    -3.897217     2.074301
 H     0.427077    -2.498266     3.246310
 C    -1.330881    -2.984997     2.063777
 H    -1.802341    -3.815947     1.531746
 H    -2.011203    -2.409314     2.696416
 H    -0.483127    -0.602472     1.866524
Rh    -0.268605    -1.668561     0.710931
 C     2.139574     0.703840     1.651563
 O     2.985325    -1.542378     0.331479
 O     1.808171     0.301405    -1.010791
 C    -1.648833    -0.193074    -2.181374
 O    -3.379270    -0.898274    -0.215149
 O    -1.853323     1.198784    -0.010046
 P    -1.786907    -0.433144    -0.390005
 P     1.652352    -0.547290     0.428496
 C     0.023251    -2.999506    -0.650089
 O     0.215015    -3.777317    -1.466910
 H     1.341011     1.458882     1.698229
 H     2.186557     0.194270     2.624194
 H     3.097975     1.188714     1.422352
 C     4.224938    -1.146280    -0.086631
 C     5.158499    -0.663202     0.831530
 H     4.888493    -0.607599     1.887517
 C     4.555415    -1.259704    -1.438372
 H     3.805492    -1.642648    -2.131959
 C     6.419657    -0.269355     0.386607
 H     7.149529     0.111301     1.105057
 C     5.819382    -0.868288    -1.871900
 H     6.075280    -0.952422    -2.930676
 C     6.752482    -0.364828    -0.964349
 H     7.741434    -0.054987    -1.308838
 C     2.115375     1.628037    -1.165692
 C     3.441582     2.064376    -1.191589
 H     4.250210     1.344322    -1.063400
 C     1.071579     2.537977    -1.347495
 H     0.042116     2.177259    -1.316511
 C     3.714276     3.416656    -1.391462
 H     4.753614     3.753193    -1.411263
 C     1.357150     3.886639    -1.549123
 H     0.536257     4.593852    -1.692499
 C     2.678341     4.332587    -1.569096
 H     2.900000     5.390325    -1.726807
 H    -0.620286     0.131787    -2.393266
 H    -1.817423    -1.162881    -2.671570
 H    -2.371734     0.545679    -2.554352
 C    -4.419135    -0.394925    -0.955088
 C    -5.018135    -1.222969    -1.905157
 H    -4.629869    -2.234314    -2.041292
 C    -4.895581     0.900055    -0.741911
 H    -4.424402     1.531943     0.011628
 C    -6.096352    -0.750484    -2.649328
 H    -6.565917    -1.401171    -3.390939
 C    -5.973246     1.362464    -1.495120
 H    -6.347241     2.375399    -1.327902
 C    -6.575679     0.544028    -2.449764
 H    -7.420936     0.912942    -3.034743
 C    -1.870467     1.675975     1.270237
 C    -2.611427     1.057307     2.281545
 H    -3.182069     0.153913     2.059971
 C    -1.138920     2.834042     1.541106
 H    -0.567465     3.302030     0.738455
 C    -2.603793     1.600253     3.564731
 H    -3.179806     1.110398     4.353359
 C    -1.144272     3.367989     2.827565
 H    -0.568725     4.273620     3.033885
 C    -1.872130     2.752808     3.845849
 H    -1.871206     3.172064     4.854193
