 104
scf done:    -2239.436083
 C    -1.266197    -1.990964    -2.978450
 H    -1.930925    -2.819512    -2.713519
 H    -1.739726    -1.225972    -3.601042
 C     0.131444    -2.228139    -3.102393
 H     0.524700    -3.234858    -2.929231
 H     0.713943    -1.642310    -3.819146
 H    -0.109006     0.161505    -2.231552
Rh    -0.244045    -1.127285    -1.290274
 O    -0.959046     1.335712     0.762850
 C    -2.771541     1.231969    -1.351802
 C    -2.928995    -0.547491     0.940203
 O     2.212276    -0.367305     1.013080
 C     3.221476    -1.132933    -1.399882
 C     1.985856     1.494873    -0.851917
 P     1.784776    -0.307900    -0.597946
 P    -1.726056     0.230909    -0.212533
 C    -0.449930    -2.693960    -0.238496
 O    -0.622879    -3.661787     0.360294
 C    -1.559337     2.352337     1.541379
 H    -1.502708     3.304445     0.981194
 H    -2.626887     2.142515     1.722074
 C    -0.828864     2.476071     2.863769
 H    -1.273038     3.320341     3.420697
 H    -1.024914     1.571580     3.464062
 C     0.672565     2.671768     2.712782
 H     0.859597     3.571219     2.099512
 H     1.080822     1.822784     2.142524
 C     1.401336     2.797314     4.039755
 H     1.037515     3.656223     4.626973
 H     1.263144     1.894998     4.657041
 H     2.483982     2.930164     3.891204
 H    -3.104903     0.491372    -2.099991
 H    -2.050579     1.871437    -1.886009
 C    -3.961813     2.024094    -0.828050
 H    -4.559615     1.395412    -0.146513
 H    -3.618550     2.883564    -0.227789
 C    -4.892590     2.545044    -1.928602
 H    -5.228619     1.668457    -2.514649
 C    -6.125164     3.199134    -1.315390
 H    -6.663697     2.503934    -0.652301
 H    -6.829095     3.537358    -2.091395
 H    -5.843739     4.081040    -0.715723
 C    -4.184126     3.501596    -2.881028
 H    -4.873828     3.873180    -3.654473
 H    -3.338109     3.023426    -3.396582
 H    -3.793620     4.377586    -2.335554
 H    -3.520502     0.214809     1.474434
 H    -2.299036    -1.049251     1.690137
 C    -3.843360    -1.545898     0.243692
 H    -4.511940    -1.007629    -0.450592
 H    -3.235165    -2.216398    -0.389052
 C    -4.699914    -2.393453     1.189078
 H    -5.296617    -1.700795     1.813048
 C    -5.668824    -3.252626     0.384663
 H    -6.307337    -2.637813    -0.269048
 H    -6.326779    -3.841029     1.042635
 H    -5.119702    -3.961355    -0.257311
 C    -3.853676    -3.257069     2.119025
 H    -4.490610    -3.886812     2.759091
 H    -3.216744    -2.655206     2.784874
 H    -3.190970    -3.921987     1.541420
 C     2.281997    -1.607883     1.685146
 H     1.737162    -2.385775     1.119091
 H     3.339301    -1.924830     1.738535
 C     1.694235    -1.478560     3.074725
 H     1.954621    -2.385563     3.648080
 H     2.191416    -0.633678     3.583207
 C     0.186274    -1.274831     3.072705
 H    -0.288860    -2.155357     2.608330
 H    -0.051036    -0.420373     2.418783
 C    -0.398720    -1.057665     4.457814
 H    -0.208233    -1.919834     5.117207
 H     0.037406    -0.170788     4.945083
 H    -1.489405    -0.908757     4.417256
 H     3.050013    -1.036301    -2.485206
 H     3.050801    -2.201130    -1.184249
 C     4.628568    -0.707352    -1.003055
 H     4.870530     0.246164    -1.499036
 H     4.666379    -0.502032     0.081514
 C     5.717429    -1.728557    -1.350360
 H     5.585447    -2.010592    -2.412091
 C     7.099382    -1.103265    -1.197910
 H     7.216086    -0.219372    -1.844284
 H     7.896753    -1.817500    -1.455825
 H     7.267421    -0.778718    -0.157210
 C     5.604888    -2.995051    -0.508409
 H     6.370511    -3.732687    -0.794206
 H     4.624628    -3.483878    -0.614665
 H     5.748734    -2.763466     0.560654
 H     1.008481     1.902899    -0.547003
 H     2.040046     1.614197    -1.946859
 C     3.102951     2.229753    -0.124602
 H     3.089946     1.929778     0.934151
 H     4.089581     1.928822    -0.512363
 C     2.989071     3.753996    -0.216556
 H     1.973986     4.028826     0.126676
 C     3.992757     4.418108     0.718365
 H     3.843899     4.093524     1.760227
 H     3.906839     5.515663     0.690421
 H     5.026110     4.158197     0.433422
 C     3.151654     4.261959    -1.644813
 H     3.064364     5.358697    -1.690879
 H     2.392274     3.842514    -2.321915
 H     4.143496     3.990753    -2.044888
