 100
scf done:    -2835.237849
 C     2.205700    -3.392473     0.765210
 H     3.026011    -3.558997     0.060646
 H     2.530642    -3.149295     1.779724
 C     0.945286    -3.996649     0.554451
 H     0.785137    -4.639686    -0.315723
 H     0.296860    -4.216435     1.406489
 H     0.505588    -1.708121     1.580451
Rh     0.821246    -1.894937     0.037871
 O     1.020100     1.133567     1.337589
 O     3.294639     0.368667     0.760279
 O     1.688920     0.993795    -1.149421
 O    -2.133589    -1.899779    -1.533345
 O    -2.494149    -1.684422     0.877734
 O    -1.511122     0.310921    -0.377013
 P    -1.327376    -1.340693    -0.250793
 P     1.713145     0.144233     0.275881
 C     1.302390    -2.181929    -1.810898
 O     1.625711    -2.347740    -2.894510
 C     1.550080     2.216833     2.104166
 H     1.445278     1.917601     3.159562
 H     2.621742     2.340193     1.893272
 C     0.778085     3.492092     1.832237
 H     1.093568     4.234043     2.587390
 H     1.076602     3.902065     0.855464
 C    -0.732942     3.310898     1.860464
 H    -1.044807     2.926184     2.848284
 H    -0.999001     2.527419     1.134623
 C    -1.495142     4.583802     1.536407
 H    -1.289642     5.381935     2.268350
 H    -1.211695     4.965633     0.542752
 H    -2.581845     4.407563     1.525181
 C     4.277869    -0.486931     0.332840
 C     4.416954    -0.809017    -1.015487
 H     3.743884    -0.356138    -1.746726
 C     5.131202    -1.035506     1.289404
 H     4.992876    -0.770680     2.338874
 C     5.400956    -1.714287    -1.431069
 C     5.521171    -2.068258    -2.884811
 H     4.546556    -2.369019    -3.299139
 H     5.869990    -1.205098    -3.474586
 H     6.231518    -2.891632    -3.042179
 C     6.121594    -1.920411     0.877520
 H     6.793476    -2.360630     1.618247
 C     6.251330    -2.265986    -0.468292
 H     7.023471    -2.975725    -0.775671
 C     1.754150     2.354813    -1.282929
 C     2.948891     3.038119    -1.067688
 H     3.835598     2.474585    -0.769526
 C     0.597731     3.033397    -1.668228
 H    -0.324057     2.468893    -1.811128
 C     3.004915     4.428687    -1.224306
 C     4.296709     5.159990    -1.000096
 H     4.781051     4.840353    -0.065004
 H     5.009103     4.960326    -1.817185
 H     4.141396     6.246720    -0.951354
 C     0.653895     4.412963    -1.835945
 H    -0.245795     4.956287    -2.134769
 C     1.843387     5.106713    -1.610624
 H     1.871929     6.192104    -1.735550
 C    -3.553548    -2.005506    -1.659812
 H    -3.871295    -2.961022    -1.211031
 H    -4.051570    -1.198459    -1.101464
 C    -3.918249    -1.940001    -3.123541
 H    -3.496616    -1.012901    -3.545653
 H    -3.433339    -2.775273    -3.656674
 C    -5.423779    -1.967245    -3.344308
 H    -5.881361    -1.122098    -2.800078
 H    -5.846665    -2.881882    -2.891959
 C    -5.811492    -1.897667    -4.812375
 H    -5.432500    -0.974634    -5.279763
 H    -5.394163    -2.746535    -5.377192
 H    -6.903808    -1.913858    -4.944728
 C    -2.366334    -1.593277     2.233980
 C    -1.567899    -0.629939     2.850037
 H    -0.992390     0.075667     2.246657
 C    -3.100503    -2.505825     2.994438
 H    -3.713862    -3.247374     2.480086
 C    -1.479036    -0.583434     4.248035
 C    -0.577199     0.421284     4.903664
 H    -0.660917     0.385451     5.998575
 H     0.474801     0.230287     4.637020
 H    -0.811938     1.445733     4.575966
 C    -3.027261    -2.444748     4.380425
 H    -3.600594    -3.153395     4.982960
 C    -2.219345    -1.494189     5.005569
 H    -2.159308    -1.462227     6.096307
 C    -2.678669     0.972433    -0.649557
 C    -3.557523     1.292479     0.383048
 H    -3.312547     0.983722     1.401464
 C    -2.946917     1.358269    -1.963579
 H    -2.238501     1.094481    -2.750924
 C    -4.735547     1.998219     0.116487
 C    -5.661348     2.366395     1.239177
 H    -5.778032     1.535818     1.950979
 H    -5.264789     3.225103     1.806193
 H    -6.657035     2.645943     0.867457
 C    -4.121211     2.055555    -2.233162
 H    -4.347483     2.356783    -3.258907
 C    -5.009847     2.369240    -1.205337
 H    -5.929254     2.915796    -1.430187
