  96
scf done:    -2383.101064
 C    -0.219081     0.204039    -3.634729
 H    -1.222429     0.280778    -4.064813
 H     0.386603     1.108601    -3.729057
 C     0.402518    -1.058568    -3.533458
 H    -0.125368    -1.950524    -3.884412
 H     1.491923    -1.129230    -3.575070
 H     1.198938     0.247612    -1.488918
Rh    -0.246236    -0.404158    -1.548020
 O    -0.419348     2.138292     0.803699
 O     0.230831     2.752729    -1.500563
 O    -2.204216     2.333257    -0.895800
 O    -0.232469    -2.065505     1.421290
 O     1.412372    -3.012804    -0.133177
 O     1.799252    -0.746454     0.967618
 P     0.673069    -1.567199     0.145505
 P    -0.704467     1.667012    -0.739090
 C    -1.907818    -1.343299    -1.711971
 O    -2.867187    -1.952771    -1.877678
 C    -1.390293     2.270702     1.830831
 H    -1.114388     3.179245     2.392540
 H    -2.378030     2.446978     1.381468
 C    -1.421919     1.072112     2.753027
 H    -2.271897     1.204540     3.447011
 H    -1.638121     0.168656     2.160645
 C    -0.134833     0.868141     3.535333
 H     0.082977     1.782217     4.116983
 H     0.690062     0.759525     2.814549
 C    -0.185843    -0.336123     4.460473
 H    -1.012551    -0.253106     5.185218
 H    -0.334242    -1.260825     3.881988
 H     0.746019    -0.445064     5.037217
 C     0.296998     4.123858    -1.122550
 H     0.319814     4.695238    -2.064968
 H    -0.615535     4.416088    -0.578294
 C     1.538780     4.399556    -0.298937
 H     1.562477     5.479627    -0.067141
 H     1.443211     3.868169     0.662144
 C     2.829646     3.982496    -0.989203
 H     2.918403     4.515089    -1.953199
 H     2.759133     2.911490    -1.240534
 C     4.065227     4.236459    -0.142358
 H     4.176191     5.305611     0.101960
 H     4.011794     3.685622     0.809630
 H     4.983886     3.916516    -0.657443
 C    -3.244564     1.730139    -1.646038
 H    -3.724340     2.534176    -2.227935
 H    -2.819101     1.009498    -2.363298
 C    -4.246784     1.049974    -0.735861
 H    -4.938477     0.452950    -1.355296
 H    -3.699432     0.323698    -0.109432
 C    -5.031571     2.009473     0.147768
 H    -5.664861     2.650181    -0.490802
 H    -4.327410     2.695128     0.648006
 C    -5.886494     1.303683     1.186851
 H    -6.607423     0.616396     0.715150
 H    -5.264862     0.704301     1.871585
 H    -6.459324     2.018536     1.796674
 C    -1.275167    -3.001851     1.202839
 H    -1.263013    -3.357469     0.156902
 H    -1.070958    -3.883593     1.832861
 C    -2.623383    -2.398975     1.533002
 H    -2.632339    -2.093223     2.593066
 H    -2.740829    -1.473299     0.945405
 C    -3.781157    -3.342157     1.244062
 H    -3.657820    -4.267560     1.834378
 H    -3.739051    -3.648539     0.184584
 C    -5.137298    -2.721132     1.536108
 H    -5.218433    -2.410183     2.590185
 H    -5.302862    -1.826311     0.915748
 H    -5.958505    -3.424329     1.331528
 C     1.886981    -3.373864    -1.422582
 H     1.995835    -4.469841    -1.400749
 H     1.122900    -3.116071    -2.173079
 C     3.203587    -2.707484    -1.767683
 H     3.452105    -2.965698    -2.812502
 H     3.053708    -1.613386    -1.751526
 C     4.358935    -3.086985    -0.853260
 H     4.548815    -4.171690    -0.937755
 H     4.057254    -2.917644     0.192680
 C     5.632327    -2.312724    -1.150156
 H     5.974390    -2.481245    -2.184119
 H     5.472968    -1.228545    -1.031941
 H     6.452426    -2.603991    -0.476442
 C     2.524582    -1.323197     2.052323
 H     1.920839    -1.235211     2.968945
 H     2.686776    -2.395019     1.858326
 C     3.839452    -0.592142     2.195721
 H     4.421303    -1.096832     2.987310
 H     4.415294    -0.712979     1.261752
 C     3.693555     0.887685     2.521564
 H     3.125463     0.995577     3.462308
 H     3.076671     1.363399     1.740966
 C     5.029666     1.601332     2.642480
 H     5.659515     1.146542     3.424442
 H     5.593974     1.554340     1.697151
 H     4.901349     2.664197     2.897435
