  64
scf done:    -2387.990449
 C     0.787412    -2.752842     1.797914
 H     1.479547    -3.532046     1.464843
 H     1.201620    -2.095163     2.567008
 C    -0.609404    -2.989153     1.749178
 H    -0.976796    -3.951074     1.376969
 H    -1.265405    -2.510541     2.481472
 H    -0.330000    -0.521639     1.298437
Rh    -0.054882    -1.617856     0.173594
 C     1.755575     0.110739    -2.315415
 C     1.674779     1.487248     0.208355
 C     3.371603    -0.760913    -0.173091
 C    -2.229673    -1.018090    -2.534281
 C    -3.523951    -0.790755    -0.037147
 C    -1.723531     1.257087    -0.854247
 P    -1.864592    -0.568328    -0.790427
 P     1.651885    -0.198200    -0.506608
 C     0.153216    -2.969997    -1.152379
 O     0.241023    -3.775664    -1.966787
 H     1.830476    -0.868875    -2.808347
 H     0.833221     0.604588    -2.654382
 H     2.630768     0.715840    -2.593846
 C     1.587667     1.603907     1.603420
 H     1.475575     0.700911     2.208884
 C     1.789197     2.652041    -0.556444
 H     1.847372     2.598499    -1.644431
 C     1.626596     2.846916     2.222036
 H     1.562521     2.950178     3.306765
 C     1.814939     3.908002     0.049162
 H     1.876732     4.825901    -0.537696
 C     1.735649     3.987389     1.431751
 F     1.749846     5.182003     2.018110
 C     4.423213     0.134120     0.061835
 H     4.229019     1.208851     0.094767
 C     3.646702    -2.133202    -0.197459
 H     2.827964    -2.838266    -0.356550
 C     5.720618    -0.327516     0.266345
 H     6.548649     0.357190     0.458807
 C     4.940724    -2.608664    -0.007589
 H     5.167892    -3.676064    -0.024536
 C     5.962255    -1.695659     0.225511
 F     7.200514    -2.141826     0.420973
 H    -2.483927    -2.087342    -2.546670
 H    -3.073405    -0.445814    -2.947278
 H    -1.333275    -0.876920    -3.155513
 C    -4.544855     0.157685    -0.181711
 H    -4.351057     1.093213    -0.712779
 C    -3.790094    -1.976087     0.655911
 H    -2.984345    -2.702969     0.781393
 C    -5.807815    -0.070873     0.355866
 H    -6.613566     0.659250     0.259978
 C    -5.051855    -2.222049     1.190825
 H    -5.275356    -3.140912     1.735853
 C    -6.043933    -1.261897     1.034372
 F    -7.249916    -1.483164     1.551173
 C    -1.624452     1.976044    -2.049410
 H    -1.686065     1.464550    -3.011859
 C    -1.652952     1.958370     0.359654
 H    -1.709034     1.408104     1.302197
 C    -1.443244     3.359927    -2.041621
 H    -1.351133     3.930612    -2.967444
 C    -1.498288     3.337147     0.382783
 H    -1.435287     3.891737     1.320291
 C    -1.379155     4.019477    -0.823707
 F    -1.179584     5.335714    -0.805893
