 102
scf done:    -2313.215397
 C     0.952694    -2.223149     2.483801
 H     1.637553    -3.001515     2.131375
 H     1.365413    -1.594324     3.278387
 C    -0.448571    -2.447590     2.429014
 H    -0.822794    -3.399469     2.038689
 H    -1.099254    -1.995322     3.182796
 H    -0.105857     0.023396     2.046924
Rh     0.129605    -1.044006     0.887961
 O     2.193293     1.703784     1.148292
 C     3.546034    -0.548787     0.909613
 C     2.167923     0.839681    -1.399235
 O    -1.241437     0.877583    -1.394327
 C    -3.000398    -1.206304    -0.767816
 C    -2.547069     1.172931     1.048815
 P    -1.706631    -0.042749    -0.080623
 P     1.969754     0.259697     0.355311
 C     0.303112    -2.405369    -0.430789
 O     0.340472    -3.264436    -1.194054
 C     1.161683     2.504235     1.701766
 H     0.427367     1.829891     2.181658
 C     0.458205     3.305388     0.621891
 H    -0.033038     2.636915    -0.099368
 H     1.177933     3.939456     0.080134
 H    -0.313500     3.956379     1.061927
 C     1.806715     3.373897     2.760816
 H     2.301378     2.750033     3.519077
 H     2.564184     4.033718     2.309673
 H     1.052607     4.000127     3.260650
 H     3.220095    -0.951328     1.885836
 C     4.756233     0.344887     1.186196
 H     4.454512     1.195274     1.813465
 H     5.143507     0.768816     0.246682
 C     5.862448    -0.465652     1.856755
 H     6.740932     0.174435     2.040827
 H     5.512507    -0.805469     2.848551
 C     6.255184    -1.679097     1.020225
 H     7.031420    -2.268760     1.534773
 H     6.707003    -1.331822     0.072838
 C     5.046754    -2.553504     0.703219
 H     4.661545    -2.998305     1.638457
 H     5.339099    -3.396194     0.055695
 C     3.929979    -1.749078     0.044226
 H     4.275604    -1.395933    -0.943263
 H     3.053135    -2.390777    -0.137131
 H     1.331109     1.559044    -1.460232
 C     1.883681    -0.232425    -2.450331
 H     0.899367    -0.679833    -2.253828
 H     2.625508    -1.045784    -2.381376
 C     1.912096     0.356044    -3.858675
 H     1.755250    -0.442453    -4.602267
 H     1.062828     1.053205    -3.968698
 C     3.201627     1.115032    -4.147132
 H     3.170565     1.554864    -5.157396
 H     4.051628     0.408417    -4.141719
 C     3.444128     2.192983    -3.097449
 H     2.642474     2.951915    -3.159426
 H     4.390107     2.722851    -3.296361
 C     3.463269     1.593328    -1.695316
 H     4.315033     0.895458    -1.629122
 H     3.627127     2.370798    -0.933947
 C    -2.005941     1.468570    -2.444639
 H    -3.035932     1.652294    -2.099776
 C    -2.043634     0.548762    -3.652267
 H    -2.544653    -0.401618    -3.424345
 H    -1.021998     0.322657    -3.990241
 H    -2.586461     1.025855    -4.482229
 C    -1.368463     2.806154    -2.769654
 H    -1.380415     3.472727    -1.895606
 H    -0.320463     2.665907    -3.074347
 H    -1.905432     3.302331    -3.591802
 H    -2.484795    -1.563650    -1.680430
 C    -4.369204    -0.649312    -1.172796
 H    -4.278203     0.230463    -1.823731
 H    -4.900246    -0.310950    -0.266790
 C    -5.213407    -1.711610    -1.874548
 H    -6.195526    -1.289943    -2.144292
 H    -4.722733    -1.987633    -2.825935
 C    -5.382538    -2.957637    -1.015428
 H    -5.953381    -3.726900    -1.560354
 H    -5.980324    -2.701223    -0.121813
 C    -4.030712    -3.502732    -0.572333
 H    -3.476723    -3.872001    -1.454433
 H    -4.163377    -4.369901     0.094621
 C    -3.193145    -2.437567     0.126225
 H    -3.690173    -2.138847     1.064842
 H    -2.215277    -2.839105     0.419510
 H    -1.663155     1.669150     1.485487
 C    -3.246203     0.444253     2.198759
 H    -2.577336    -0.330124     2.605143
 H    -4.143556    -0.073719     1.817856
 C    -3.666341     1.423066     3.289632
 H    -4.193083     0.887325     4.095890
 H    -2.760482     1.860979     3.746370
 C    -4.540945     2.537946     2.727973
 H    -4.806134     3.257996     3.519041
 H    -5.493432     2.105130     2.370885
 C    -3.852189     3.251276     1.570534
 H    -2.954415     3.772861     1.949704
 H    -4.508876     4.030690     1.150787
 C    -3.428342     2.279334     0.469970
 H    -4.327966     1.852946    -0.003202
 H    -2.883471     2.831489    -0.309045
