  90
scf done:    -2455.862745
 C     0.336344     1.077729    -3.247297
 H    -0.041437     0.457288    -4.065452
 H    -0.124283     2.066213    -3.183763
 C     1.660748     0.899938    -2.782662
 H     2.298716     0.141216    -3.247253
 H     2.200386     1.746859    -2.349697
 H     0.280020     1.484607    -0.702395
Rh     0.289502     0.030696    -1.339153
 O    -2.598944     1.576349    -0.464810
 C    -3.070440    -0.751341    -1.785605
 C    -2.276300    -0.586314     1.048694
 O     1.180329    -1.137271     1.756091
 C     3.134004    -1.451667    -0.160545
 C     2.501209     1.060313     1.277916
 P     1.734926    -0.362604     0.368077
 P    -1.880365     0.094953    -0.638247
 C     0.250600    -1.721223    -2.088314
 O     0.201201    -2.784916    -2.523178
 C    -2.270006     2.661867    -1.290480
 H    -1.184926     2.861069    -1.275752
 H    -2.577950     2.495341    -2.338374
 H    -2.810045     3.536091    -0.900233
 H    -3.056231    -0.108915    -2.681683
 H    -2.578272    -1.687199    -2.083201
 C    -4.465466    -0.971776    -1.291575
 C    -5.348409     0.111669    -1.207720
 H    -4.998032     1.100662    -1.508942
 C    -4.902694    -2.250802    -0.885467
 C    -4.009282    -3.456221    -0.979423
 H    -3.074964    -3.333806    -0.408083
 H    -3.715398    -3.663901    -2.021267
 H    -4.516833    -4.350641    -0.593365
 C    -6.643603    -0.045962    -0.726797
 H    -7.310261     0.816818    -0.662433
 C    -6.210067    -2.391664    -0.404724
 H    -6.552775    -3.381845    -0.091835
 C    -7.077916    -1.305444    -0.320679
 H    -8.092330    -1.445375     0.060149
 H    -2.701657    -1.587318     0.882287
 H    -1.294388    -0.719890     1.520952
 C    -3.174084     0.228241     1.933005
 C    -4.522673    -0.104738     2.076662
 H    -4.921929    -0.960193     1.527796
 C    -2.653280     1.329015     2.644165
 C    -1.205383     1.702252     2.525284
 H    -0.943105     1.922291     1.478923
 H    -0.546030     0.879232     2.848020
 H    -0.968803     2.586354     3.133402
 C    -5.365374     0.639497     2.898378
 H    -6.418078     0.361415     2.988726
 C    -3.510795     2.064439     3.466428
 H    -3.108648     2.918363     4.018991
 C    -4.858230     1.732123     3.595191
 H    -5.507477     2.325723     4.243532
 C     0.694299    -2.449511     1.626271
 H     0.056693    -2.557614     0.729478
 H     1.520294    -3.180871     1.566071
 H     0.090809    -2.676828     2.516294
 H     2.636462    -2.376479    -0.507902
 H     3.469520    -0.974138    -1.094329
 C     4.299650    -1.780282     0.733274
 C     4.188340    -1.775972     2.129126
 H     3.228241    -1.525371     2.583698
 C     5.536784    -2.129455     0.146248
 C     5.702153    -2.195096    -1.344983
 H     5.550819    -1.211908    -1.821819
 H     4.976754    -2.883674    -1.806464
 H     6.710407    -2.538445    -1.613530
 C     5.278273    -2.079374     2.942883
 H     5.164542    -2.063635     4.029400
 C     6.619075    -2.429392     0.978875
 H     7.576512    -2.695786     0.522521
 C     6.502549    -2.401284     2.366554
 H     7.365792    -2.638257     2.992882
 H     1.741101     1.295938     2.037591
 H     3.386148     0.682783     1.809561
 C     2.802449     2.274555     0.451090
 C     1.804495     3.243569     0.285458
 H     0.853092     3.112496     0.804652
 C     4.050364     2.465340    -0.176207
 C     5.183017     1.497097    -0.000880
 H     4.992685     0.545809    -0.517466
 H     5.356075     1.243165     1.056046
 H     6.117285     1.908981    -0.405937
 C     1.998287     4.361496    -0.519205
 H     1.198598     5.096829    -0.634489
 C     4.231848     3.598381    -0.978843
 H     5.199428     3.746082    -1.466331
 C     3.218950     4.534308    -1.166618
 H     3.390169     5.404762    -1.804246
