  88
scf done:    -3074.857549
 C     1.308883     0.800491    -3.775802
 H     1.954035     1.681604    -3.835123
 H     1.783587    -0.131353    -4.091853
 C    -0.091397     0.944928    -3.843357
 H    -0.537783     1.937321    -3.952163
 H    -0.707849     0.123898    -4.217520
 H     0.334465    -0.968884    -2.197978
Rh     0.485971     0.555238    -1.780016
 O     1.788273    -1.853189     0.057222
 O     3.472955    -0.749398    -1.528319
 O     2.817957     0.282406     0.716956
 O    -1.538033     0.284648     0.929877
 O    -2.634244     1.253408    -1.160771
 O    -2.120117    -1.287752    -0.891550
 P    -1.447312     0.189471    -0.711184
 P     2.112456    -0.430162    -0.624756
 C     0.644680     2.436234    -1.367084
 O     0.687217     3.561020    -1.168359
 C     2.411035    -2.435724     1.206578
 H     2.616339    -3.484060     0.938801
 H     3.371529    -1.944342     1.413713
 C     1.493246    -2.351281     2.405129
 H     2.034101    -2.774378     3.270281
 H     1.320103    -1.286428     2.637635
 C     0.165411    -3.069358     2.216433
 H     0.360452    -4.128673     1.973210
 H    -0.342714    -2.647978     1.334003
 C    -0.736601    -2.983278     3.436618
 H    -0.247949    -3.405982     4.329359
 H    -0.994791    -1.937508     3.669999
 H    -1.677181    -3.533763     3.283578
 C     4.484650    -1.569127    -1.095254
 C     4.454587    -2.922980    -1.430180
 H     3.618394    -3.303179    -2.019267
 C     5.539514    -1.050081    -0.343471
 H     5.550599     0.011618    -0.092082
 C     5.477496    -3.766263    -1.005879
 H     5.480101    -4.829153    -1.253935
 C     6.564515    -1.890612     0.083025
 H     7.402220    -1.512615     0.671705
 C     6.519127    -3.239193    -0.250931
 F     7.498100    -4.044465     0.159061
 C     3.098548     1.615566     0.771452
 C     3.699294     2.294568    -0.292861
 H     3.952027     1.756126    -1.208192
 C     2.771579     2.298356     1.944097
 H     2.313110     1.742530     2.763769
 C     3.954355     3.659707    -0.185538
 H     4.410401     4.215456    -1.006487
 C     3.032334     3.660022     2.055545
 H     2.784008     4.215477     2.961791
 C     3.615312     4.327517     0.983660
 F     3.857453     5.633031     1.084794
 C    -1.057721     1.452823     1.577439
 H    -0.078343     1.738402     1.153470
 H    -1.755635     2.290075     1.392435
 C    -0.927444     1.183257     3.058256
 H    -1.871751     0.747342     3.427657
 H    -0.152982     0.411880     3.209649
 C    -0.587287     2.437063     3.851673
 H    -1.412410     3.163551     3.752493
 H     0.292401     2.928255     3.400891
 C    -0.322431     2.156846     5.321717
 H    -1.194483     1.685144     5.802046
 H     0.531585     1.472312     5.450497
 H    -0.096310     3.079856     5.876087
 C    -3.988188     1.179087    -0.946889
 C    -4.539668     1.046607     0.328773
 H    -3.886379     0.974805     1.197473
 C    -4.816394     1.262778    -2.065653
 H    -4.358430     1.378393    -3.049502
 C    -5.920135     0.955938     0.477722
 H    -6.375671     0.828679     1.461093
 C    -6.198058     1.184551    -1.918772
 H    -6.867089     1.243052    -2.779110
 C    -6.733464     1.021299    -0.647105
 F    -8.055030     0.929894    -0.502447
 C    -3.277518    -1.782490    -0.330102
 C    -4.356686    -2.045411    -1.172031
 H    -4.264148    -1.827629    -2.236768
 C    -3.359300    -2.057796     1.033281
 H    -2.505189    -1.847769     1.673061
 C    -5.540207    -2.551272    -0.645485
 H    -6.406008    -2.749562    -1.279321
 C    -4.541854    -2.567192     1.563301
 H    -4.636625    -2.785709     2.628593
 C    -5.620551    -2.800648     0.719947
 F    -6.755590    -3.278559     1.229248
