  76
scf done:    -2148.351222
 C    -0.966502    -2.503798     1.647377
 H    -1.588439    -2.096779     2.450765
 H    -1.490330    -3.206274     0.993651
 C     0.434700    -2.599469     1.813128
 H     0.894497    -2.270225     2.750574
 H     0.990340    -3.391282     1.303934
 H     0.019684    -2.036533    -0.679580
Rh    -0.039292    -0.941513     0.488020
 C    -1.837862    -0.704939    -2.525660
 C    -3.423769    -1.109471    -0.154994
 C    -2.323182     1.530265    -0.837567
 C     1.554318     0.489929    -2.305227
 C     2.505414     1.419080     0.260011
 C     3.297260    -1.180962    -0.838004
 P     1.841308    -0.071354    -0.578350
 P    -1.901081    -0.267344    -0.739083
 C    -0.008626     0.308821     1.924177
 O     0.060689     1.034782     2.809975
 H    -1.074557    -0.065713    -2.985863
 H    -1.513765    -1.748484    -2.631397
 H    -2.791692    -0.550261    -3.048309
 C    -3.898470    -2.224052    -0.858681
 H    -3.408114    -2.534718    -1.782510
 C    -4.055675    -0.736758     1.052950
 C    -3.595802     0.430684     1.872559
 H    -3.841384     1.391135     1.392635
 H    -2.504811     0.417610     2.004378
 H    -4.063109     0.419110     2.866615
 C    -4.990078    -2.959055    -0.404787
 H    -5.338145    -3.824077    -0.974143
 C    -5.155027    -1.486016     1.486999
 H    -5.647675    -1.195918     2.419238
 C    -5.628004    -2.583864     0.773450
 H    -6.486965    -3.148434     1.143550
 C    -1.305452     2.401217    -0.429943
 H    -0.381073     1.972358    -0.037794
 C    -3.538491     2.067073    -1.323671
 C    -4.719022     1.234288    -1.735041
 H    -5.248315     0.834232    -0.855801
 H    -4.439299     0.363887    -2.340899
 H    -5.432765     1.838808    -2.311718
 C    -1.448770     3.783807    -0.498378
 H    -0.633113     4.430741    -0.167084
 C    -3.662897     3.461573    -1.381964
 H    -4.599265     3.885411    -1.755603
 C    -2.639836     4.316733    -0.979687
 H    -2.779975     5.398773    -1.040669
 H     0.713105     1.196398    -2.335733
 H     2.440750     0.948112    -2.765825
 H     1.278057    -0.406181    -2.877471
 C     2.272161     2.691204    -0.279358
 H     1.781066     2.793021    -1.248565
 C     3.143294     1.304106     1.515490
 C     3.437909    -0.026832     2.140781
 H     4.329352    -0.490616     1.687770
 H     2.608158    -0.735342     1.991540
 H     3.621470     0.079463     3.218782
 C     2.657603     3.845139     0.397326
 H     2.465351     4.825579    -0.045143
 C     3.524830     2.477231     2.175819
 H     4.015930     2.392236     3.149054
 C     3.289615     3.737318     1.632935
 H     3.596413     4.633093     2.177890
 C     3.029795    -2.549959    -0.721709
 H     2.013809    -2.847547    -0.454764
 C     4.601899    -0.754875    -1.182320
 C     5.014359     0.682988    -1.326297
 H     5.127671     1.171155    -0.345754
 H     4.282906     1.283689    -1.881238
 H     5.978464     0.751052    -1.849169
 C     4.017021    -3.508446    -0.930234
 H     3.777632    -4.569930    -0.833795
 C     5.581272    -1.737817    -1.378304
 H     6.593633    -1.418265    -1.641066
 C     5.305165    -3.096621    -1.254928
 H     6.098826    -3.830125    -1.417181
