  50
scf done:    -1608.040546
 C    -3.726685     1.001691    -0.561257
 H    -4.324695     1.145766     0.344022
 H    -3.633199     1.899281    -1.179381
 C    -3.685851    -0.280431    -1.174894
 H    -4.251854    -1.107114    -0.733907
 H    -3.562853    -0.354528    -2.259360
 H    -1.402212     0.784534    -1.563440
Rh    -1.816401     0.093070    -0.178523
 C     1.285842     1.727575    -0.077797
 C    -0.942533     3.444765     0.314518
 C    -0.102321     1.763813     2.442855
 C     1.221418    -1.706920     0.014972
 C    -1.028434    -3.299254    -0.650381
 C     0.079666    -1.587448    -2.628849
 P    -0.388640    -1.589111    -0.861132
 P    -0.405726     1.718801     0.636095
 C    -2.314914    -0.682382     1.481925
 O    -2.584098    -1.141634     2.501787
 C     2.446221     1.626788     0.696118
 C     1.412772     1.805119    -1.472535
 C     3.819111     1.702831    -1.292820
 C     2.667370     1.801701    -2.074633
 C     3.702864     1.610498     0.091204
 H     2.382792     1.544397     1.782073
 H     4.597210     1.518152     0.711934
 H     4.804764     1.691849    -1.764273
 H     2.747184     1.871586    -3.162519
 H     0.510839     1.854715    -2.089125
 H    -1.057564     3.582318    -0.769458
 H    -1.927361     3.594190     0.780764
 H    -0.222502     4.179497     0.705811
 H     0.547314     2.599247     2.745107
 H    -1.077800     1.865861     2.939887
 H     0.343497     0.812193     2.765223
 C     1.194904    -1.761972     1.416465
 C     2.460140    -1.707645    -0.632799
 C     3.606927    -1.840583     1.492048
 C     3.644113    -1.769943     0.102402
 C     2.375335    -1.838078     2.149014
 H     0.234782    -1.738402     1.939956
 H     2.334851    -1.890285     3.239981
 H     4.535658    -1.891303     2.065410
 H     4.603529    -1.756618    -0.420305
 H     2.515637    -1.644160    -1.720684
 H    -1.239723    -3.474005     0.414125
 H    -1.975947    -3.384025    -1.202425
 H    -0.312692    -4.054680    -1.008820
 H     0.623282    -0.660873    -2.859163
 H     0.689171    -2.460634    -2.907148
 H    -0.851476    -1.588131    -3.212792
