  98
scf done:    -2609.097775
 C    -2.361057    -2.273793    -2.600195
 H    -2.396708    -3.346202    -2.384397
 H    -3.327316    -1.768356    -2.530610
 C    -1.366035    -1.768251    -3.470682
 H    -0.625467    -2.441668    -3.910875
 H    -1.576246    -0.881883    -4.075170
 H    -1.793209     0.031662    -1.659228
Rh    -0.848288    -1.234871    -1.440482
 C    -1.610778     0.898245     1.229832
 O    -2.930881    -1.329151     1.254340
 O    -0.411364    -1.468759     1.783177
 C     2.060892     0.552116    -0.423358
 O     1.893366    -0.429248    -2.953084
 O     0.662955     1.725839    -2.248046
 P     0.907545     0.171725    -1.781649
 P    -1.464447    -0.828473     0.688151
 C     0.170611    -2.820065    -1.105386
 O     0.766659    -3.770741    -0.871027
 C    -2.837253     1.577216     1.205449
 H    -3.747560     1.032669     0.947937
 C    -0.457445     1.607236     1.569677
 H     0.507638     1.097876     1.594237
 C    -2.901849     2.927921     1.508731
 H    -3.849363     3.469826     1.495021
 C    -0.508755     2.966081     1.875032
 H     0.414742     3.486068     2.129673
 C    -1.737166     3.634315     1.843751
 O    -1.894575     4.946721     2.109055
 C    -0.762005     5.712321     2.414405
 H    -0.034132     5.713129     1.584204
 H    -1.111997     6.738830     2.580803
 H    -0.259529     5.352656     3.329370
 C    -3.403610    -2.631182     0.943583
 H    -2.980697    -2.949159    -0.026467
 H    -3.045495    -3.334494     1.715993
 C    -4.915565    -2.613980     0.902249
 H    -5.269514    -3.656825     0.822899
 H    -5.286674    -2.233672     1.870379
 C    -5.491365    -1.781921    -0.234655
 H    -5.167239    -2.214585    -1.196480
 H    -5.047828    -0.773202    -0.197192
 C    -7.007248    -1.684368    -0.196827
 H    -7.475710    -2.680197    -0.257874
 H    -7.354421    -1.216435     0.738682
 H    -7.396075    -1.083665    -1.032989
 C    -0.613583    -1.344508     3.184810
 H    -0.095417    -0.436858     3.541739
 H    -1.687896    -1.222746     3.400020
 C    -0.065685    -2.576005     3.872331
 H    -0.270451    -2.484893     4.953743
 H    -0.629804    -3.457551     3.520589
 C     1.422223    -2.795998     3.639744
 H     1.974132    -1.907493     3.996805
 H     1.600451    -2.849036     2.553466
 C     1.958841    -4.046162     4.316284
 H     1.812812    -4.008970     5.408142
 H     1.445770    -4.948523     3.947051
 H     3.035279    -4.179852     4.128946
 C     2.568323     1.838422    -0.186007
 H     2.260672     2.658334    -0.836934
 C     2.440387    -0.484756     0.430464
 H     2.031699    -1.486624     0.286281
 C     3.436010     2.072812     0.869500
 H     3.836374     3.068970     1.068397
 C     3.319047    -0.265604     1.488994
 H     3.588834    -1.099442     2.136128
 C     3.821569     1.021827     1.716410
 O     4.661161     1.340006     2.718124
 C     5.075575     0.331007     3.597699
 H     5.626404    -0.469288     3.073243
 H     5.745111     0.804587     4.326545
 H     4.222734    -0.119801     4.135426
 C     3.094144     0.200193    -3.382129
 H     3.183889    -0.045824    -4.452730
 H     2.997059     1.296747    -3.303921
 C     4.320336    -0.288825    -2.629038
 H     5.208789     0.122238    -3.141042
 H     4.330051     0.139548    -1.614362
 C     4.424149    -1.803790    -2.534522
 H     4.482838    -2.235568    -3.549471
 H     3.490010    -2.194582    -2.099565
 C     5.609791    -2.260948    -1.701344
 H     6.563669    -1.903676    -2.122717
 H     5.538777    -1.870953    -0.672591
 H     5.663449    -3.358496    -1.639178
 C    -0.454707     2.126816    -3.026455
 H    -0.064903     2.535199    -3.975036
 H    -1.080716     1.250100    -3.258427
 C    -1.266659     3.166908    -2.286178
 H    -2.126321     3.434529    -2.926500
 H    -1.686058     2.707632    -1.374065
 C    -0.483256     4.421420    -1.924585
 H     0.033943     4.798107    -2.825664
 H     0.311319     4.146659    -1.210936
 C    -1.349629     5.523506    -1.336725
 H    -2.131325     5.837605    -2.047334
 H    -1.855621     5.195100    -0.416663
 H    -0.754328     6.416298    -1.088618
