  78
scf done:    -2223.087237
 C     1.192362    -3.042743    -0.989992
 H     1.533244    -3.033667    -2.029645
 H     1.994230    -3.161646    -0.256109
 C    -0.117512    -3.480086    -0.684521
 H    -0.779048    -3.810422    -1.491498
 H    -0.321478    -3.942959     0.284484
 H     0.358131    -1.628610     1.008767
Rh    -0.006815    -1.310076    -0.506517
 C     3.276805    -0.563731     0.362975
 O     2.233127     1.209303    -1.261266
 O     1.382244     1.170172     1.156363
 C    -2.288844     1.307922    -0.319924
 O    -3.305305    -1.009075     0.346727
 O    -1.624280     0.063740     1.990488
 P    -1.819011    -0.301167     0.412697
 P     1.671040     0.166128    -0.113951
 C    -0.630941    -1.039612    -2.297611
 O    -1.083606    -0.926248    -3.345748
 C     3.323246    -1.376852     1.503426
 C     4.434220    -0.384564    -0.399933
 C     5.668513    -1.804985     1.117274
 C     5.625078    -1.005131    -0.022616
 C     4.514639    -1.988976     1.881154
 H     2.412455    -1.537049     2.087386
 H     4.542513    -2.619903     2.772852
 H     6.602112    -2.291167     1.410600
 H     6.525887    -0.860298    -0.624166
 H     4.391939     0.250826    -1.286016
 C     1.500893     1.505265    -2.453218
 H     0.434671     1.283860    -2.271492
 C     2.014543     0.629258    -3.578222
 H     1.938795    -0.432582    -3.301925
 H     3.071027     0.856898    -3.790301
 H     1.430549     0.788437    -4.496736
 C     1.650383     2.984868    -2.735143
 H     1.230109     3.582150    -1.914187
 H     2.712145     3.250152    -2.853983
 H     1.117021     3.253117    -3.658958
 C     2.368452     2.070685     1.676388
 H     3.338406     1.855073     1.194592
 C     2.485737     1.818834     3.164992
 H     2.817910     0.788960     3.356393
 H     1.509369     1.963430     3.651395
 H     3.211986     2.509136     3.619921
 C     1.960558     3.491699     1.340547
 H     1.882669     3.617582     0.252196
 H     0.987615     3.733857     1.796210
 H     2.704712     4.208105     1.719947
 C    -3.456111     1.474068    -1.070210
 C    -1.388029     2.375269    -0.198032
 C    -2.827944     3.757034    -1.559818
 C    -1.662806     3.595849    -0.807674
 C    -3.720678     2.695197    -1.691013
 H    -4.156028     0.641259    -1.156712
 H    -4.633858     2.817757    -2.278657
 H    -3.039236     4.713289    -2.044690
 H    -0.961841     4.427356    -0.697493
 H    -0.468933     2.236116     0.377062
 C    -3.465495    -2.404390     0.071299
 H    -2.458862    -2.831107    -0.076366
 C    -4.251966    -2.543208    -1.215635
 H    -3.718254    -2.057017    -2.045799
 H    -5.244432    -2.075311    -1.117936
 H    -4.393917    -3.603787    -1.472611
 C    -4.126858    -3.067809     1.261057
 H    -3.507078    -2.952332     2.161888
 H    -5.114439    -2.621677     1.458099
 H    -4.265294    -4.143379     1.074049
 C    -2.533313     0.886377     2.729649
 H    -3.167185     1.446342     2.018421
 C    -1.701076     1.868889     3.526593
 H    -1.087444     2.484678     2.854519
 H    -1.026311     1.328244     4.207788
 H    -2.346113     2.531786     4.122422
 C    -3.416167     0.007018     3.592103
 H    -4.013677    -0.665936     2.963318
 H    -2.800331    -0.601270     4.272388
 H    -4.101050     0.620718     4.196748
