 110
scf done:    -3289.937866
 C    -0.302416    -0.908558    -3.377396
 H    -0.790704    -1.870862    -3.546295
 H    -0.799563    -0.067634    -3.869927
 C     1.092824    -0.850900    -3.148277
 H     1.690011    -1.768552    -3.132851
 H     1.651184     0.043232    -3.431150
 H     0.108217     0.953150    -1.753285
Rh     0.074901    -0.543869    -1.282625
 C    -2.431945     1.830850    -0.873129
 C    -3.593911    -0.656033    -0.758835
 C    -2.050961     0.172327     1.529813
 C     1.624708    -0.293251     1.946034
 C     3.194243    -1.187149    -0.462812
 C     2.867485     1.561303     0.161739
 P     1.879522    -0.008426     0.129248
 P    -1.955982     0.126228    -0.310360
 C     0.051515    -2.410604    -0.835195
 O     0.051606    -3.547722    -0.660405
 C    -2.787945     2.909596    -0.059747
 C    -2.479736     1.998005    -2.262098
 C    -3.201194     4.288941    -2.006247
 C    -2.870036     3.210911    -2.826530
 C    -3.156205     4.131477    -0.621179
 H    -2.805421     2.790758     1.022775
 H    -3.421862     4.966106     0.033301
 H    -3.496144     5.246106    -2.443543
 H    -2.905919     3.314294    -3.913885
 H    -2.197996     1.161627    -2.905110
 C    -4.798952    -0.053664    -0.335058
 O    -4.683560     0.943621     0.558825
 C    -5.797512     1.709328     0.910122
 H    -5.431971     2.496032     1.582497
 H    -6.263844     2.181602     0.028549
 H    -6.555886     1.110322     1.444213
 C    -3.705332    -1.820416    -1.547241
 O    -2.581640    -2.501119    -1.812765
 C    -2.632791    -3.662671    -2.587745
 H    -1.606557    -4.046545    -2.635443
 H    -2.991724    -3.458916    -3.611747
 H    -3.276435    -4.433919    -2.128809
 C    -4.955374    -2.268043    -2.005702
 H    -5.025531    -3.147123    -2.643931
 C    -6.048387    -0.495573    -0.787283
 H    -6.963402     0.002487    -0.469868
 C    -6.109752    -1.593012    -1.635400
 H    -7.079097    -1.942118    -1.999481
 C    -2.718453    -0.830645     2.257941
 O    -3.142193    -1.896239     1.551290
 C    -4.065068    -2.787260     2.103691
 H    -4.368804    -3.460906     1.291498
 H    -3.624363    -3.386755     2.919957
 H    -4.958178    -2.262815     2.485222
 C    -1.383899     1.170459     2.265302
 O    -0.600284     2.002183     1.557574
 C    -0.009658     3.095544     2.200916
 H     0.544513     3.641013     1.430898
 H     0.693280     2.769184     2.985065
 H    -0.770283     3.761226     2.646379
 C    -1.546676     1.277643     3.652567
 H    -1.044821     2.065920     4.210462
 C    -2.892853    -0.730556     3.642165
 H    -3.445239    -1.494497     4.188571
 C    -2.320272     0.338764     4.321627
 H    -2.445436     0.418801     5.404025
 C     0.690544    -1.257904     2.346134
 C     2.252781     0.464112     2.939159
 C     1.112217    -0.776493     4.673532
 C     1.997414     0.226430     4.291138
 C     0.454248    -1.515976     3.691190
 H     0.147476    -1.819808     1.586483
 H    -0.274076    -2.279605     3.972754
 H     0.916242    -0.966979     5.731715
 H     2.505138     0.830174     5.048103
 H     2.953639     1.251455     2.665808
 C     3.965529    -0.842391    -1.591845
 O     3.757847     0.386981    -2.103397
 C     4.485385     0.823824    -3.210602
 H     4.149731     1.849233    -3.412536
 H     5.571070     0.839707    -3.008613
 H     4.293424     0.199001    -4.100849
 C     3.353012    -2.485335     0.051240
 O     2.562567    -2.813432     1.088083
 C     2.553806    -4.114539     1.591356
 H     1.813579    -4.121620     2.402557
 H     3.535632    -4.403802     2.006019
 H     2.252664    -4.846153     0.821907
 C     4.274802    -3.386025    -0.500277
 H     4.383572    -4.386798    -0.084291
 C     4.894512    -1.731883    -2.144969
 H     5.485609    -1.444857    -3.013626
 C     5.043529    -2.997472    -1.589465
 H     5.762425    -3.697134    -2.022180
 C     2.386626     2.766611    -0.387895
 O     1.095410     2.807565    -0.732093
 C     0.587379     3.888827    -1.460277
 H    -0.449756     3.634360    -1.704169
 H     0.597688     4.822943    -0.870345
 H     1.152545     4.049742    -2.394457
 C     4.214158     1.535168     0.587230
 O     4.635984     0.393390     1.159413
 C     6.000711     0.146388     1.330757
 H     6.084477    -0.895753     1.664556
 H     6.448503     0.804949     2.095897
 H     6.554929     0.263197     0.383682
 C     5.061611     2.636960     0.423844
 H     6.098733     2.593634     0.754292
 C     3.232265     3.875507    -0.555485
 H     2.849604     4.797715    -0.990207
 C     4.559009     3.795609    -0.155513
 H     5.213646     4.661009    -0.285751
