  66
scf done:    -1916.035702
 C     0.421041    -3.710325     0.274295
 H     0.321261    -4.260134    -0.665832
 H     1.433841    -3.708154     0.684354
 C    -0.695114    -3.577365     1.136427
 H    -1.647945    -4.038411     0.857108
 H    -0.544079    -3.485142     2.215337
 H     0.658590    -1.443572     1.351721
Rh    -0.314516    -1.690656     0.119281
 C     2.185489     0.730346     0.200469
 O     2.604078    -1.516961    -1.402203
 O     1.101477     0.420658    -2.179347
 C    -1.603866     1.623970    -0.037216
 O    -3.039266    -0.052316     1.386124
 O    -0.770907     0.820470     2.289901
 P    -1.451571     0.099979     0.968064
 P     1.383857    -0.549167    -0.863677
 C    -1.531084    -2.139331    -1.283800
 O    -2.289376    -2.477391    -2.076486
 H     1.320975     1.124244     0.767169
 C     2.857683     1.913676    -0.496462
 H     2.167992     2.366205    -1.222987
 H     3.732107     1.567149    -1.072512
 C     3.312719     2.941379     0.536218
 H     3.815857     3.783573     0.033795
 H     2.422501     3.364394     1.036321
 C     4.230529     2.321153     1.584326
 H     4.516180     3.072228     2.338598
 H     5.169125     1.999108     1.097073
 C     3.578800     1.116047     2.253945
 H     2.703197     1.452432     2.838306
 H     4.273657     0.650950     2.971897
 C     3.117915     0.084898     1.229222
 H     3.995430    -0.345154     0.716012
 H     2.608035    -0.754041     1.728683
 C     3.723995    -1.033952    -2.110034
 H     3.453105    -0.212471    -2.792689
 H     4.509864    -0.676991    -1.423775
 H     4.129928    -1.868618    -2.699252
 C     0.477635    -0.103962    -3.326249
 H     1.203020    -0.631996    -3.968045
 H    -0.329288    -0.808193    -3.067142
 H     0.047637     0.735982    -3.889591
 H    -0.557452     1.869479    -0.298307
 C    -2.219797     2.809176     0.705655
 H    -1.649919     3.010623     1.623801
 H    -3.241050     2.534294     1.019557
 C    -2.263319     4.043639    -0.189703
 H    -2.738109     4.881180     0.347016
 H    -1.229005     4.364453    -0.412216
 C    -2.994258     3.768374    -1.499288
 H    -2.978231     4.661243    -2.145362
 H    -4.057530     3.559682    -1.282244
 C    -2.393149     2.572081    -2.228945
 H    -1.362350     2.815776    -2.545585
 H    -2.960429     2.355675    -3.148856
 C    -2.353439     1.336057    -1.337532
 H    -3.381494     1.018137    -1.090996
 H    -1.882489     0.497196    -1.870390
 C    -3.593269    -1.280882     1.796569
 H    -2.962416    -2.125450     1.472854
 H    -3.695824    -1.309590     2.894161
 H    -4.592131    -1.379700     1.346782
 C    -0.463334     0.077600     3.443033
 H    -1.373312    -0.145886     4.025596
 H     0.040186    -0.870237     3.183717
 H     0.210358     0.685933     4.062954
