  74
scf done:    -1922.292098
 C    -0.650217    -3.459393    -1.198130
 H    -1.274683    -4.075344    -0.542915
 H    -1.085811    -3.284084    -2.186137
 C     0.764098    -3.505832    -1.051218
 H     1.203735    -4.151971    -0.284617
 H     1.399022    -3.365075    -1.930340
 H     0.212860    -1.156027    -1.795413
Rh     0.022320    -1.637163    -0.285286
 C    -1.412202     1.364268    -1.369553
 C    -3.309189    -0.742598    -1.039797
 C    -2.230931     0.584715     1.301142
 C     1.435145     1.016957     1.481578
 C     3.383423    -0.914001     0.720326
 C     2.280056     0.864662    -1.287438
 P     1.785504    -0.188627     0.138462
 P    -1.723900    -0.116542    -0.327477
 C    -0.235831    -2.267233     1.490680
 O    -0.415523    -2.645356     2.562016
 C    -1.296469     2.658601    -0.849548
 C    -1.184596     1.174389    -2.741228
 C    -0.730653     3.529399    -3.034035
 C    -0.855384     2.244793    -3.566380
 C    -0.952203     3.730989    -1.674146
 H    -1.452356     2.841079     0.213940
 H    -0.858327     4.732008    -1.245317
 H    -0.460771     4.368981    -3.678979
 H    -0.679539     2.073376    -4.631095
 H    -1.231903     0.166015    -3.160099
 H    -4.030709     0.087256    -1.126989
 H    -3.067647    -1.069525    -2.064571
 C    -3.888732    -1.907298    -0.248708
 H    -4.162460    -1.568268     0.765417
 H    -3.099041    -2.663680    -0.112321
 C    -5.102034    -2.531005    -0.920248
 H    -5.912616    -1.796359    -1.052803
 H    -4.844765    -2.922597    -1.917401
 H    -5.503217    -3.367345    -0.327790
 H    -2.271333    -0.277476     1.987187
 H    -1.369232     1.177549     1.652505
 C    -3.524420     1.386491     1.382505
 H    -4.382225     0.720784     1.191585
 H    -3.555554     2.145677     0.583809
 C    -3.692734     2.059729     2.736686
 H    -3.691885     1.318748     3.551981
 H    -2.866463     2.761579     2.934942
 H    -4.636515     2.622981     2.796015
 C     1.260759     0.532044     2.787378
 C     1.210089     2.378428     1.244312
 C     0.636379     2.731929     3.567810
 C     0.810219     3.226955     2.277676
 C     0.870107     1.378964     3.819717
 H     1.406180    -0.529913     2.999636
 H     0.735493     0.977035     4.826755
 H     0.321035     3.396203     4.375802
 H     0.633707     4.285107     2.067698
 H     1.323645     2.787885     0.240193
 H     4.081584    -0.100656     0.981248
 H     3.152100    -1.448749     1.656405
 C     3.999401    -1.877619    -0.284139
 H     4.240111    -1.337869    -1.216443
 H     3.241815    -2.628409    -0.558167
 C     5.251358    -2.559052     0.245498
 H     6.031151    -1.825322     0.506221
 H     5.031375    -3.142842     1.153693
 H     5.677928    -3.249348    -0.498118
 H     2.369533     0.166718    -2.135416
 H     1.392426     1.474537    -1.526829
 C     3.530670     1.724200    -1.155853
 H     4.419295     1.074094    -1.095913
 H     3.510485     2.287539    -0.208276
 C     3.683108     2.690155    -2.321751
 H     3.733010     2.151258    -3.281375
 H     2.824195     3.378349    -2.379720
 H     4.596782     3.296971    -2.229828
