  86
scf done:    -3000.066514
 C    -0.920568     0.003034    -3.887427
 H    -1.403402    -0.907109    -4.256073
 H    -1.562423     0.887687    -3.920550
 C     0.485894     0.137973    -4.011040
 H     1.064133    -0.670788    -4.469452
 H     0.921545     1.132197    -4.145368
 H    -0.147698     1.345566    -1.928009
Rh    -0.033008    -0.236584    -1.947467
 C    -1.765589     1.628156     0.423608
 C    -3.486314     0.035801    -1.233529
 C    -2.122598    -1.192771     0.879026
 C     1.748848    -1.178759     0.909672
 C     3.465123    -0.367681    -1.220048
 C     2.107171     1.598794     0.313713
 P     1.800630    -0.019726    -0.510978
 P    -1.813718     0.028219    -0.463543
 C     0.154709    -2.123908    -2.150584
 O     0.303396    -3.246386    -2.343681
 C    -2.001077     2.809338    -0.302270
 H    -2.310692     2.749041    -1.349082
 C    -1.348455     1.746852     1.749134
 H    -1.163209     0.848606     2.340962
 C    -1.828767     4.052404     0.279404
 H    -2.009194     4.971850    -0.280918
 C    -1.144822     2.994843     2.341850
 H    -0.790283     3.043375     3.371475
 C    -1.375731     4.158334     1.604197
 O    -1.173558     5.407339     2.060804
 C    -0.617384     5.581755     3.336694
 H     0.390688     5.139076     3.402914
 H    -0.537615     6.664123     3.497023
 H    -1.258041     5.151577     4.126081
 C    -3.735068    -0.897393    -2.247171
 H    -2.920301    -1.540149    -2.587834
 C    -4.531906     0.864008    -0.808569
 H    -4.361986     1.600154    -0.019643
 C    -4.995302    -1.010951    -2.824495
 H    -5.201407    -1.735104    -3.614649
 C    -5.795963     0.770672    -1.386006
 H    -6.618453     1.415187    -1.070398
 C    -6.010990    -0.168802    -2.386709
 F    -7.217171    -0.261890    -2.941806
 C    -1.442888    -2.411828     0.873708
 H    -0.684775    -2.601785     0.114642
 C    -3.087571    -0.963990     1.871635
 H    -3.646456    -0.025321     1.884997
 C    -1.706543    -3.386213     1.833028
 H    -1.178180    -4.340279     1.835533
 C    -3.348052    -1.918094     2.848090
 H    -4.091567    -1.751446     3.629620
 C    -2.650287    -3.122332     2.814004
 F    -2.899370    -4.041190     3.743997
 C     1.263187    -0.794932     2.168797
 H     1.012481     0.250411     2.355422
 C     2.055697    -2.528631     0.710643
 H     2.429550    -2.865764    -0.259836
 C     1.091500    -1.720847     3.185546
 H     0.702868    -1.426544     4.162104
 C     1.891095    -3.470823     1.724676
 H     2.142830    -4.512899     1.526251
 C     1.396566    -3.070902     2.972077
 O     1.171353    -3.903856     4.004629
 C     1.431264    -5.270193     3.842847
 H     2.496792    -5.463739     3.627131
 H     1.166218    -5.755286     4.790472
 H     0.820862    -5.711933     3.035249
 C     3.667039    -0.110796    -2.579906
 H     2.818884     0.221075    -3.181057
 C     4.546019    -0.818574    -0.450267
 H     4.408417    -1.044882     0.609417
 C     4.918002    -0.286449    -3.165363
 H     5.087553    -0.090112    -4.225528
 C     5.800019    -1.006476    -1.022743
 H     6.649645    -1.363969    -0.438097
 C     5.969695    -0.733196    -2.375819
 F     7.167681    -0.912860    -2.926713
 C     3.009588     1.709357     1.382663
 H     3.542764     0.828341     1.745257
 C     1.455090     2.749351    -0.133787
 H     0.751506     2.666558    -0.964893
 C     3.224091     2.928429     2.014750
 H     3.911095     3.024888     2.857363
 C     1.668275     3.981774     0.479761
 H     1.145203     4.881591     0.153136
 C     2.538646     4.048445     1.556236
 F     2.711634     5.213635     2.185188
