 102
scf done:    -2587.273036
 C    -0.694161     0.034302    -3.734145
 H    -1.214528    -0.829961    -4.159313
 H    -1.250507     0.972098    -3.827655
 C     0.728978     0.061620    -3.739825
 H     1.280285    -0.781501    -4.169290
 H     1.249537     1.019631    -3.827925
 H     0.003804     1.306802    -1.690090
Rh     0.027997    -0.280885    -1.738624
 C    -1.477607     1.597987     0.752115
 C    -3.270021     0.663520    -1.294599
 C    -2.308135    -1.161624     0.937886
 C     1.444281    -1.061347     1.321034
 C     3.336203    -1.066675    -0.835361
 C     2.297071     1.535834     0.358089
 P     1.815832    -0.158337    -0.238862
 P    -1.779880     0.121552    -0.308561
 C     0.111093    -2.163391    -1.970122
 O     0.227160    -3.286321    -2.196436
 C    -1.323169     1.545551     2.141704
 H    -1.446844     0.604557     2.676990
 C    -1.308717     2.841975     0.121430
 H    -1.402568     2.913655    -0.964528
 C    -0.982337     2.680783     2.879147
 H    -0.847036     2.637335     3.961559
 C    -0.994224     3.987007     0.842223
 H    -0.866258     4.953537     0.351774
 C    -0.818050     3.888669     2.218668
 F    -0.476690     4.974766     2.910019
 H    -2.779328     1.324460    -2.033214
 C    -4.373386     1.478160    -0.618971
 H    -3.946632     2.318159    -0.050062
 H    -4.916890     0.854032     0.106757
 C    -5.359031     1.993513    -1.666124
 H    -6.163024     2.567397    -1.177041
 H    -4.836463     2.700437    -2.336075
 C    -5.946130     0.855551    -2.495106
 H    -6.624440     1.252856    -3.267620
 H    -6.564809     0.215745    -1.839422
 C    -4.852806     0.004269    -3.132065
 H    -4.307120     0.605531    -3.881390
 H    -5.294667    -0.844922    -3.678280
 C    -3.860736    -0.501523    -2.090057
 H    -4.382621    -1.187364    -1.399663
 H    -3.051262    -1.077195    -2.565247
 H    -1.466892    -1.138740     1.656814
 C    -2.332054    -2.583564     0.372670
 H    -1.377974    -2.802774    -0.123779
 H    -3.112788    -2.668011    -0.401697
 C    -2.592421    -3.610065     1.472049
 H    -2.642450    -4.619910     1.033453
 H    -1.733617    -3.612920     2.164644
 C    -3.858544    -3.305424     2.262694
 H    -3.986555    -4.035662     3.077998
 H    -4.739418    -3.415649     1.604165
 C    -3.826624    -1.885707     2.814572
 H    -3.009604    -1.798109     3.554386
 H    -4.760964    -1.656391     3.352374
 C    -3.605696    -0.872048     1.695922
 H    -4.450468    -0.941142     0.990449
 H    -3.617209     0.154294     2.092634
 C     1.283331    -2.455664     1.250865
 H     1.449138    -2.978723     0.306413
 C     1.205126    -0.437152     2.550539
 H     1.315755     0.642129     2.652961
 C     0.896190    -3.199570     2.358037
 H     0.773276    -4.282541     2.302625
 C     0.793733    -1.166617     3.667257
 H     0.593092    -0.679467     4.623486
 C     0.639388    -2.539907     3.555539
 F     0.223060    -3.242979     4.607900
 H     2.879741    -1.993515    -1.231983
 C     4.396881    -1.485679     0.183357
 H     3.934828    -1.996619     1.041627
 H     4.903706    -0.595147     0.586068
 C     5.433998    -2.391813    -0.477206
 H     6.205748    -2.677821     0.255899
 H     4.943526    -3.330473    -0.793358
 C     6.073220    -1.724357    -1.690491
 H     6.788758    -2.409203    -2.173875
 H     6.660489    -0.850943    -1.352486
 C     5.021186    -1.258688    -2.691269
 H     4.512676    -2.138189    -3.125932
 H     5.496867    -0.728750    -3.532437
 C     3.978525    -0.362166    -2.031203
 H     4.468800     0.565175    -1.686702
 H     3.201702    -0.066325    -2.751783
 H     1.401102     1.821100     0.943462
 C     2.409926     2.570076    -0.765889
 H     1.522459     2.507251    -1.412905
 H     3.279063     2.333890    -1.402677
 C     2.567864     3.975547    -0.193782
 H     2.674916     4.703850    -1.014174
 H     1.642751     4.244505     0.344501
 C     3.747413     4.076825     0.766078
 H     3.801727     5.086591     1.204230
 H     4.688533     3.929831     0.205305
 C     3.656029     3.022872     1.863363
 H     2.777497     3.232411     2.501215
 H     4.538466     3.071781     2.521949
 C     3.522815     1.622894     1.270255
 H     4.424817     1.406326     0.673589
 H     3.489715     0.864868     2.067234
