  82
scf done:    -4513.068026
 C    -0.440626    -3.725174     1.031967
 H     0.326506    -4.390040     0.626197
 H    -0.440875    -3.636092     2.121495
 C    -1.630860    -3.505161     0.308053
 H    -1.784420    -4.002320    -0.653825
 H    -2.551038    -3.242199     0.834530
 H    -1.098295    -1.281305     1.427491
Rh    -0.351169    -1.753795     0.111737
 C     1.283944    -0.027491     2.753436
 O     2.839843    -1.532855     1.278490
 O     1.884543     0.608970     0.181148
 C    -1.110905     0.752281    -2.327216
 O    -3.169104    -0.309689    -1.137122
 O    -1.653181     1.212563     0.284210
 P    -1.554536    -0.086099    -0.779315
 P     1.394130    -0.715828     1.078600
 C     0.482922    -2.412293    -1.504157
 O     0.937107    -2.824122    -2.467802
 C     0.319308     0.964316     2.972686
 C     2.078325    -0.478230     3.811685
 C     0.973298     1.076394     5.295116
 C     1.918601     0.074779     5.080967
 C     0.174431     1.519516     4.240440
 H    -0.326460     1.285767     2.151085
 H    -0.571879     2.299713     4.407021
 H     0.854145     1.510798     6.290574
 H     2.539559    -0.278446     5.907611
 H     2.821535    -1.257993     3.635679
 C     3.299830    -2.341143     0.271578
 C     3.878097    -1.783373    -0.868859
 H     3.965830    -0.698972    -0.953421
 C     3.187330    -3.723989     0.402755
 H     2.730027    -4.135388     1.303772
 C     4.337437    -2.612903    -1.887212
 H     4.786896    -2.191941    -2.787623
 C     3.647455    -4.556053    -0.612618
 H     3.561853    -5.640311    -0.526869
 C     4.214879    -3.995280    -1.756758
Cl     4.774031    -5.028452    -3.028146
 C     2.805224     1.577901     0.457870
 C     2.695714     2.757237    -0.285098
 H     1.901109     2.838905    -1.029423
 C     3.838329     1.432098     1.386066
 H     3.949847     0.503755     1.943603
 C     3.595005     3.798021    -0.086921
 H     3.513233     4.721071    -0.662998
 C     4.735924     2.478013     1.588268
 H     5.542706     2.375173     2.315572
 C     4.611148     3.657388     0.858290
Cl     5.730612     4.954295     1.116214
 C    -2.062957     1.326394    -3.178762
 C     0.251556     0.870073    -2.625891
 C    -0.290324     2.151201    -4.598974
 C     0.659049     1.571979    -3.758353
 C    -1.649127     2.023923    -4.310143
 H    -3.124222     1.221874    -2.950089
 H    -2.393726     2.473158    -4.971357
 H     0.029195     2.700441    -5.487932
 H     1.723830     1.662261    -3.985959
 H     0.990772     0.425670    -1.955672
 C    -4.000932    -1.047703    -0.343497
 C    -4.801167    -2.010010    -0.958421
 H    -4.721636    -2.150093    -2.037718
 C    -4.073185    -0.848256     1.036749
 H    -3.441610    -0.096287     1.511652
 C    -5.671046    -2.782307    -0.196835
 H    -6.298255    -3.541772    -0.666048
 C    -4.936942    -1.627107     1.802047
 H    -4.995451    -1.488584     2.882646
 C    -5.730774    -2.591595     1.183926
Cl    -6.803960    -3.560958     2.137900
 C    -2.091009     2.457900    -0.082018
 C    -3.447204     2.716670    -0.283182
 H    -4.175698     1.913626    -0.165294
 C    -1.150810     3.478498    -0.218195
 H    -0.098096     3.252689    -0.042896
 C    -3.859416     3.997588    -0.640235
 H    -4.916014     4.215080    -0.803884
 C    -1.559742     4.759649    -0.571580
 H    -0.833159     5.565923    -0.682855
 C    -2.914241     5.011728    -0.787857
Cl    -3.428352     6.603565    -1.238829
