 110
scf done:    -2617.786255
 C    -0.741938     0.194921    -3.914447
 H    -1.271259    -0.647429    -4.371580
 H    -1.292676     1.139380    -3.965458
 C     0.682101     0.213121    -3.931516
 H     1.223546    -0.614761    -4.401536
 H     1.208077     1.170716    -3.986378
 H    -0.015271     1.377996    -1.826863
Rh    -0.005607    -0.206853    -1.941188
 C    -1.451708     1.580704     0.639522
 C    -3.293532     0.757101    -1.406615
 C    -2.307696    -1.176414     0.723248
 C     1.433934    -1.140350     1.076785
 C     3.302160    -1.045981    -1.099114
 C     2.286542     1.495409     0.234497
 P     1.790006    -0.165449    -0.440858
 P    -1.791794     0.157395    -0.473519
 C     0.064086    -2.077978    -2.245762
 O     0.173125    -3.193004    -2.514600
 C    -1.291699     2.855145     0.062736
 H    -1.436904     2.983527    -1.012474
 C    -1.236632     1.469269     2.012835
 H    -1.351976     0.508362     2.513810
 C    -0.921117     3.952197     0.818632
 H    -0.798383     4.937677     0.365626
 C    -0.831845     2.561509     2.787737
 H    -0.654539     2.416518     3.853871
 C    -0.660494     3.811266     2.190529
 O    -0.240020     4.918883     2.833455
 C     0.093113     4.821866     4.189498
 H     0.911322     4.099036     4.358408
 H     0.428985     5.817939     4.504220
 H    -0.773844     4.526617     4.806557
 H    -2.810072     1.456606    -2.114110
 C    -4.376377     1.538983    -0.662824
 H    -3.930491     2.336088    -0.048790
 H    -4.914176     0.874454     0.030983
 C    -5.374179     2.128977    -1.657295
 H    -6.163637     2.679248    -1.119571
 H    -4.855370     2.871110    -2.291119
 C    -5.987837     1.050641    -2.544700
 H    -6.673966     1.501566    -3.280160
 H    -6.603227     0.378435    -1.918902
 C    -4.915253     0.227686    -3.250966
 H    -4.374878     0.867762    -3.971465
 H    -5.376615    -0.581352    -3.840521
 C    -3.911437    -0.351606    -2.259154
 H    -4.430690    -1.071231    -1.601782
 H    -3.117461    -0.907291    -2.781971
 H    -1.438037    -1.210644     1.407252
 C    -2.393467    -2.563877     0.083758
 H    -1.470380    -2.778105    -0.469975
 H    -3.212628    -2.588099    -0.654228
 C    -2.626897    -3.642729     1.137632
 H    -2.722718    -4.626587     0.649679
 H    -1.732701    -3.696359     1.781191
 C    -3.843546    -3.354061     2.007997
 H    -3.946979    -4.123005     2.791385
 H    -4.759128    -3.413929     1.391677
 C    -3.752652    -1.965211     2.628288
 H    -2.897307    -1.931641     3.328262
 H    -4.654221    -1.746545     3.223648
 C    -3.564856    -0.901008     1.550901
 H    -4.441815    -0.921419     0.882405
 H    -3.538280     0.104550     1.996462
 C     1.217502    -0.579266     2.343438
 H     1.339106     0.492430     2.499338
 C     1.257842    -2.524621     0.950728
 H     1.403167    -3.007660    -0.018496
 C     0.814975    -1.357464     3.422147
 H     0.631641    -0.912867     4.402500
 C     0.879882    -3.322738     2.026801
 H     0.759458    -4.395322     1.873974
 C     0.633278    -2.736496     3.274560
 O     0.213006    -3.409856     4.364401
 C     0.036041    -4.796679     4.274497
 H     0.977368    -5.315030     4.020618
 H    -0.300194    -5.135449     5.262490
 H    -0.730171    -5.065492     3.526265
 H     2.836582    -1.948097    -1.539716
 C     4.368233    -1.524217    -0.112755
 H     3.908462    -2.075855     0.721076
 H     4.883994    -0.658968     0.331848
 C     5.394626    -2.400351    -0.828013
 H     6.170774    -2.728966    -0.117504
 H     4.895899    -3.318237    -1.189196
 C     6.028393    -1.673862    -2.009948
 H     6.736272    -2.336218    -2.534483
 H     6.623295    -0.822616    -1.631015
 C     4.971353    -1.149897    -2.976193
 H     4.453886    -2.002456    -3.452046
 H     5.444104    -0.579598    -3.792360
 C     3.939719    -0.283349    -2.261062
 H     4.439198     0.621180    -1.871892
 H     3.158945     0.055651    -2.958049
 H     1.396782     1.756104     0.840052
 C     2.401113     2.585822    -0.834803
 H     1.506584     2.566318    -1.474896
 H     3.261359     2.373985    -1.492078
 C     2.579271     3.958832    -0.193111
 H     2.692097     4.725988    -0.976570
 H     1.661115     4.212594     0.362945
 C     3.763371     3.999499     0.765761
 H     3.828331     4.985539     1.254164
 H     4.702332     3.871402     0.196621
 C     3.664131     2.891659     1.807683
 H     2.785422     3.074492     2.454140
 H     4.546858     2.899272     2.468030
 C     3.518646     1.526133     1.141891
 H     4.416265     1.337872     0.529042
 H     3.486110     0.726353     1.896763
