  80
scf done:    -2449.006551
 C    -0.604049    -2.737095    -1.039065
 H    -1.303671    -3.285390    -0.400087
 H    -0.962341    -2.582667    -2.060468
 C     0.783897    -2.776270    -0.768833
 H     1.167167    -3.354163     0.077879
 H     1.500598    -2.637866    -1.581346
 H     0.304404    -0.448777    -1.658750
Rh    -0.003463    -0.863371    -0.147287
 C    -1.710156     1.761366    -1.812580
 C    -3.252649    -0.563176    -1.150157
 C    -2.641635     1.411704     0.841810
 C     1.763721     1.324031     1.998380
 C     3.275222    -0.821549     0.859693
 C     2.663730     1.537632    -0.682754
 P     1.896280     0.320592     0.461429
 P    -1.863781     0.459005    -0.529033
 C    -0.407213    -1.441637     1.616873
 O    -0.650282    -1.819475     2.675875
 H    -0.982755     2.496802    -1.441356
 H    -1.307363     1.319806    -2.734296
 H    -2.672025     2.254077    -2.006285
 C    -3.661705    -0.558473    -2.482072
 H    -3.200005     0.137999    -3.184272
 C    -3.862051    -1.474838    -0.263089
 O    -3.417236    -1.439088     1.007225
 C    -3.920283    -2.340151     1.951092
 H    -4.999041    -2.184582     2.128421
 H    -3.368924    -2.152590     2.880387
 H    -3.754026    -3.387235     1.642982
 C    -4.655110    -1.426096    -2.941006
 H    -4.956688    -1.405071    -3.990447
 C    -4.861980    -2.340069    -0.713140
 H    -5.336941    -3.040782    -0.025937
 C    -5.254382    -2.311284    -2.052400
 H    -6.035184    -2.994152    -2.395940
 C    -1.968042     1.517977     2.056123
 H    -0.996220     1.030430     2.142675
 C    -3.905085     2.028534     0.718898
 O    -4.517523     1.922638    -0.476804
 C    -5.852982     2.314363    -0.613804
 H    -6.502553     1.801635     0.116448
 H    -6.158642     2.022508    -1.626670
 H    -5.978500     3.405785    -0.500408
 C    -2.510892     2.207067     3.140646
 H    -1.960541     2.272078     4.081401
 C    -4.463374     2.709335     1.805737
 H    -5.442393     3.181391     1.717874
 C    -3.763056     2.796315     3.009134
 H    -4.210632     3.334439     3.848539
 H     1.318980     0.716938     2.799648
 H     2.736877     1.720737     2.315510
 H     1.076978     2.154220     1.781065
 C     3.592940    -1.174812     2.170129
 H     3.068055    -0.696885     2.999402
 C     3.964385    -1.458645    -0.192952
 O     3.614509    -1.078000    -1.436061
 C     4.223341    -1.670388    -2.544806
 H     5.313023    -1.490686    -2.558908
 H     3.774287    -1.203696    -3.430552
 H     4.038936    -2.758795    -2.579274
 C     4.568970    -2.133424     2.449845
 H     4.796132    -2.395167     3.485441
 C     4.946501    -2.413788     0.079667
 H     5.480503    -2.904844    -0.734321
 C     5.243993    -2.748108     1.401840
 H     6.010564    -3.499987     1.604315
 C     2.010021     1.861967    -1.868668
 H     1.069395     1.348776    -2.078895
 C     3.908544     2.144774    -0.411924
 O     4.516836     1.796612     0.739722
 C     5.830241     2.208827     0.985878
 H     6.512909     1.892319     0.178352
 H     6.137315     1.723309     1.920958
 H     5.904723     3.303942     1.108198
 C     2.547475     2.775452    -2.775821
 H     2.013188     3.012400    -3.698241
 C     4.458876     3.053753    -1.321546
 H     5.421412     3.524134    -1.118793
 C     3.773785     3.367355    -2.495592
 H     4.214912     4.081947    -3.195156
