  78
scf done:    -2421.471201
 C     0.939743    -0.329513    -3.565562
 H     1.156124     0.618130    -4.065684
 H     1.807408    -0.986199    -3.459254
 C    -0.358019    -0.884496    -3.657555
 H    -1.133283    -0.352558    -4.216818
 H    -0.483472    -1.969754    -3.642037
 H     0.529486    -1.518973    -1.362361
Rh    -0.062695    -0.076489    -1.664246
 C     2.869574    -0.571698     0.243817
 O     2.700539     1.790593    -0.809625
 O     1.071662     1.291420     1.100415
 C    -2.719715     0.407190     0.624863
 O    -2.774123    -1.888332    -0.583770
 O    -0.872391    -1.538830     1.094340
 P    -1.611402    -0.797462    -0.179566
 P     1.626906     0.638562    -0.314814
 C    -0.898773     1.604057    -2.062370
 O    -1.427539     2.595584    -2.286040
 C     2.406491    -1.804355     0.723964
 H     1.332614    -2.011613     0.723594
 C     4.241751    -0.302332     0.246751
 H     4.598697     0.653582    -0.139551
 C     3.299194    -2.748221     1.218894
 H     2.959851    -3.712014     1.603223
 C     5.145142    -1.246437     0.730306
 H     6.220883    -1.061303     0.736139
 C     4.659606    -2.455131     1.213343
 F     5.518130    -3.359128     1.679176
 C     2.252827     3.074509    -1.256330
 H     1.220909     3.236059    -0.893092
 C     2.264699     3.129263    -2.769550
 H     1.596307     2.366617    -3.186625
 H     3.281624     2.944010    -3.147751
 H     1.931904     4.116690    -3.122345
 C     3.165439     4.112062    -0.633147
 H     3.144685     4.054908     0.463935
 H     4.202305     3.951310    -0.966236
 H     2.859691     5.125250    -0.933459
 C     1.918485     1.788828     2.143360
 H     2.926580     1.959767     1.725638
 C     2.002664     0.776852     3.268544
 H     2.427153    -0.173065     2.917571
 H     0.999136     0.581122     3.674296
 H     2.638017     1.160560     4.080987
 C     1.333983     3.111839     2.598471
 H     1.249970     3.815608     1.758069
 H     0.327912     2.957731     3.018804
 H     1.964427     3.570184     3.375028
 C    -2.143858     1.579804     1.133426
 H    -1.064238     1.730492     1.042813
 C    -4.099542     0.211248     0.744038
 H    -4.546258    -0.695567     0.333503
 C    -2.929917     2.534260     1.769459
 H    -2.501268     3.453052     2.174341
 C    -4.896134     1.163592     1.375694
 H    -5.975018     1.032861     1.478241
 C    -4.298554     2.311216     1.882090
 F    -5.055839     3.223930     2.486280
 C    -2.587054    -2.845612    -1.630914
 H    -1.519594    -2.846062    -1.911065
 C    -3.414731    -2.415869    -2.823946
 H    -3.109355    -1.412199    -3.150512
 H    -4.483242    -2.388822    -2.559263
 H    -3.281073    -3.112103    -3.665518
 C    -2.973389    -4.207574    -1.093283
 H    -2.344337    -4.482809    -0.234992
 H    -4.024418    -4.208496    -0.765326
 H    -2.852877    -4.976956    -1.870401
 C    -1.594746    -2.146888     2.171318
 H    -2.643032    -2.289184     1.855776
 C    -1.546642    -1.252577     3.394269
 H    -1.999457    -0.273557     3.187778
 H    -0.503127    -1.095119     3.705157
 H    -2.091756    -1.716880     4.229926
 C    -0.966634    -3.504073     2.419099
 H    -0.994228    -4.116974     1.507082
 H     0.085374    -3.387375     2.723272
 H    -1.499443    -4.041180     3.217946
