  90
scf done:    -4219.534048
 C    -0.569200     0.010605    -3.766895
 H    -1.174982    -0.792881    -4.198931
 H    -0.989152     1.010899    -3.906918
 C     0.837937    -0.156989    -3.682164
 H     1.285055    -1.085456    -4.051157
 H     1.499815     0.710779    -3.751784
 H     0.156088     1.242388    -1.724129
Rh    -0.003945    -0.333227    -1.714967
 C    -2.102119     1.811070     0.251477
 C    -3.445528    -0.517181    -0.816671
 C    -1.586733    -0.859493     1.315331
 C     2.102676    -1.322219     1.125371
 C     3.431056     0.070788    -1.005430
 C     1.618259     1.512685     0.685802
 P     1.776197    -0.076533    -0.225949
 P    -1.789260     0.051548    -0.266877
 C    -0.272782    -2.215528    -1.878433
 O    -0.488019    -3.329611    -2.058286
 H    -1.176124     2.084442     0.791516
 C    -3.307664     2.023143     1.168320
 H    -3.275825     1.355851     2.042728
 H    -4.224458     1.758440     0.614130
 C    -3.396401     3.479932     1.616822
 H    -4.266351     3.615572     2.279653
 H    -2.502833     3.735412     2.215393
 C    -3.484107     4.419310     0.420339
 H    -3.504913     5.468812     0.755433
 H    -4.437409     4.240223    -0.109128
 C    -2.323190     4.192377    -0.540516
 H    -1.384325     4.494851    -0.044878
 H    -2.427255     4.833417    -1.430870
 C    -2.207653     2.731807    -0.966220
 H    -3.097141     2.445781    -1.557119
 H    -1.333970     2.583785    -1.618485
 C    -3.736139    -0.482870    -2.184843
 H    -2.951684    -0.179978    -2.881414
 C    -4.440295    -0.942248     0.073936
 H    -4.232480    -0.987508     1.145412
 C    -4.992942    -0.846872    -2.659969
 H    -5.218877    -0.819608    -3.727068
 C    -5.696748    -1.320874    -0.388105
 H    -6.470474    -1.658231     0.303445
 C    -5.967170    -1.265722    -1.755617
Cl    -7.529414    -1.733643    -2.335272
 C    -1.262563    -0.243613     2.528380
 H    -1.251951     0.842851     2.609270
 C    -1.598224    -2.262886     1.268008
 H    -1.857231    -2.773675     0.337272
 C    -0.911007    -0.996068     3.649235
 H    -0.637857    -0.507843     4.586420
 C    -1.264430    -3.026173     2.378724
 H    -1.265628    -4.116046     2.327984
 C    -0.895530    -2.384265     3.562591
Cl    -0.380611    -3.325286     4.921688
 H     1.215165    -1.234674     1.778457
 C     3.367163    -1.063837     1.946289
 H     3.387203    -0.036891     2.341687
 H     4.243726    -1.151176     1.281833
 C     3.498976    -2.075667     3.081391
 H     4.411008    -1.868304     3.664239
 H     2.648031    -1.962812     3.778024
 C     3.519873    -3.500306     2.541875
 H     3.581013    -4.225899     3.368815
 H     4.430801    -3.641564     1.932418
 C     2.289685    -3.776753     1.687067
 H     1.395982    -3.757132     2.333759
 H     2.338214    -4.788423     1.252910
 C     2.117449    -2.747942     0.572629
 H     2.946457    -2.847974    -0.151302
 H     1.189543    -2.947305     0.019740
 C     3.732216    -0.789360    -2.068276
 H     2.957216    -1.462663    -2.441327
 C     4.418530     0.956355    -0.556938
 H     4.207877     1.636687     0.271311
 C     4.990132    -0.782853    -2.662843
 H     5.223650    -1.455399    -3.489665
 C     5.675903     0.985998    -1.153302
 H     6.443611     1.680286    -0.807842
 C     5.956007     0.110788    -2.201986
Cl     7.518960     0.140622    -2.945478
 C     1.337068     1.593180     2.052676
 H     1.344051     0.696488     2.671510
 C     1.616075     2.702399    -0.060171
 H     1.833218     2.666701    -1.130457
 C     1.000778     2.808114     2.651598
 H     0.754124     2.857639     3.713596
 C     1.303775     3.922121     0.524143
 H     1.292520     4.838890    -0.067293
 C     0.965644     3.963443     1.878388
Cl     0.465271     5.460766     2.589235
