  98
scf done:    -2236.551868
 C    -0.578031    -3.539945    -1.073341
 H    -1.328390    -4.090353    -0.496313
 H    -0.835261    -3.419873    -2.129803
 C     0.789118    -3.618882    -0.686778
 H     1.069894    -4.223131     0.181818
 H     1.565581    -3.557718    -1.454342
 H     0.474583    -1.308785    -1.654127
Rh     0.005763    -1.681183    -0.174448
 C    -1.106144     1.279294    -1.670250
 C    -3.137575    -0.725277    -1.494242
 C    -2.350181     0.721290     0.883746
 C     1.188401     1.014506     1.695094
 C     3.211693    -0.951206     1.269894
 C     2.410101     0.765128    -0.915477
 P     1.712585    -0.239959     0.456693
 P    -1.643943    -0.112655    -0.598720
 C    -0.582433    -2.186857     1.562342
 O    -0.964931    -2.491632     2.603347
 C    -1.009396     2.601377    -1.219912
 C    -0.667361     0.983844    -2.970042
 C    -0.036470     3.289054    -3.325089
 C    -0.145522     1.977653    -3.791786
 C    -0.471787     3.596199    -2.038549
 H    -1.331833     2.865639    -0.212429
 H    -0.394173     4.619738    -1.663036
 H     0.388253     4.067048    -3.963737
 H     0.194933     1.724546    -4.798789
 H    -0.700185    -0.048649    -3.327148
 H    -2.772390    -1.127634    -2.453582
 H    -3.794238     0.128438    -1.725235
 C    -3.857790    -1.815076    -0.714012
 H    -3.109464    -2.556894    -0.389980
 H    -4.289766    -1.391915     0.211636
 C    -4.967052    -2.530407    -1.487921
 H    -4.511017    -2.941721    -2.408429
 C    -5.507913    -3.699052    -0.672520
 H    -4.706863    -4.404536    -0.402485
 H    -6.277229    -4.256987    -1.228642
 H    -5.967547    -3.342929     0.264775
 C    -6.090424    -1.585683    -1.900570
 H    -6.882986    -2.123048    -2.444199
 H    -5.732799    -0.776197    -2.554562
 H    -6.553269    -1.119819    -1.013742
 H    -1.515601     1.292994     1.322926
 H    -2.540839    -0.090704     1.602381
 C    -3.585152     1.595457     0.701754
 H    -3.517902     2.163964    -0.240942
 H    -4.480437     0.956600     0.599230
 C    -3.808112     2.585852     1.848563
 H    -2.917015     3.242399     1.887777
 C    -5.024941     3.459629     1.570566
 H    -4.931807     3.986164     0.607686
 H    -5.165505     4.217075     2.357318
 H    -5.943249     2.850281     1.528586
 C    -3.923377     1.890069     3.200073
 H    -4.105197     2.618984     4.005156
 H    -3.007607     1.336958     3.456559
 H    -4.763554     1.174941     3.203056
 C     0.798132     0.573596     2.969259
 C     1.031528     2.371652     1.386314
 C     0.089448     2.803774     3.572299
 C     0.482231     3.256705     2.315203
 C     0.258183     1.457056     3.898887
 H     0.889626    -0.482923     3.232959
 H    -0.045338     1.088732     4.881798
 H    -0.346405     3.495643     4.296709
 H     0.360450     4.309916     2.049183
 H     1.316438     2.748946     0.403790
 H     2.857866    -1.453194     2.185700
 H     3.870359    -0.126656     1.585839
 C     3.925835    -1.951387     0.373470
 H     3.178742    -2.667695    -0.003780
 H     4.329141    -1.435295    -0.517414
 C     5.064079    -2.719469     1.048565
 H     4.639091    -3.221264     1.938651
 C     5.595403    -3.799335     0.113119
 H     4.794305    -4.485106    -0.203452
 H     6.384207    -4.398018     0.594578
 H     6.027615    -3.350269    -0.796951
 C     6.187737    -1.801946     1.517799
 H     7.000811    -2.376464     1.988216
 H     5.839372    -1.061289     2.253309
 H     6.620853    -1.249739     0.666218
 H     1.566983     1.366834    -1.293021
 H     2.611080     0.038276    -1.716650
 C     3.627246     1.632397    -0.620407
 H     3.546451     2.078357     0.385228
 H     4.534803     1.003002    -0.594172
 C     3.833311     2.762641    -1.633238
 H     2.928734     3.400478    -1.595419
 C     5.030625     3.619540    -1.241446
 H     4.923016     4.019867    -0.221067
 H     5.157854     4.471910    -1.926847
 H     5.961491     3.028725    -1.270109
 C     3.967268     2.243816    -3.060336
 H     4.133412     3.071372    -3.767541
 H     3.064544     1.706561    -3.387134
 H     4.823792     1.553882    -3.148431
