 102
scf done:    -2688.673653
 C    -0.072134    -1.765630    -3.469892
 H    -0.707330    -2.653690    -3.548391
 H    -0.410356    -0.919927    -4.075203
 C     1.309971    -1.917855    -3.186046
 H     1.723918    -2.922358    -3.050078
 H     2.024222    -1.191011    -3.585145
 H     0.622842     0.224786    -2.064903
Rh     0.302221    -1.192024    -1.426474
 C    -2.259090     1.378381    -1.215438
 C    -3.102942    -1.358442    -1.597841
 C    -2.069487    -0.502806     1.094683
 C     1.929175    -0.215031     1.664666
 C     3.296242    -2.084406     0.020998
 C     3.243554     0.660387    -0.767936
 P     2.112686    -0.634477    -0.113403
 P    -1.770186    -0.333884    -0.751511
 C    -0.003810    -2.897509    -0.638975
 O    -0.164034    -3.921005    -0.136197
 C    -1.463824     2.075825    -2.132607
 C    -3.425101     1.995982    -0.731389
 C    -2.956768     3.971040    -2.047639
 C    -3.763165     3.283635    -1.140868
 C    -1.808950     3.360734    -2.547685
 H    -0.554334     1.599577    -2.506860
 H    -1.165544     3.888424    -3.255515
 H    -3.225029     4.982147    -2.364205
 H    -4.667015     3.750862    -0.742579
 H    -4.075156     1.480309    -0.027041
 H    -3.175097    -0.889609    -2.591311
 H    -2.623885    -2.332405    -1.756682
 C    -4.455045    -1.517228    -0.977239
 C    -5.447112    -0.553026    -1.195009
 H    -5.221936     0.296570    -1.843339
 C    -4.761282    -2.649497    -0.189255
 C    -3.774654    -3.764470     0.012453
 H    -2.834463    -3.429509     0.475718
 H    -3.495179    -4.234246    -0.944650
 H    -4.197386    -4.548699     0.654928
 C    -6.703686    -0.656237    -0.606831
 H    -7.454524     0.117236    -0.784026
 C    -6.034101    -2.742864     0.386252
 H    -6.272420    -3.618420     0.996471
 C    -6.997076    -1.754233     0.197897
 H    -7.979763    -1.852277     0.665218
 H    -2.372739    -1.553558     1.216398
 H    -1.054867    -0.425802     1.505679
 C    -2.996930     0.400085     1.851100
 C    -4.316149     0.010179     2.106678
 H    -4.661097    -0.963924     1.756396
 C    -2.548805     1.656720     2.313224
 C    -1.143476     2.114806     2.070641
 H    -0.936428     2.183023     0.992252
 H    -0.400925     1.422967     2.497772
 H    -0.966235     3.107293     2.506204
 C    -5.203887     0.850980     2.771956
 H    -6.232257     0.524735     2.943772
 C    -3.452071     2.486286     2.984732
 H    -3.107091     3.463139     3.334805
 C    -4.771809     2.100702     3.208493
 H    -5.457201     2.773550     3.729696
 C     1.149622    -1.078614     2.447843
 C     2.536744     0.886313     2.276807
 C     1.586630     0.255756     4.410691
 C     2.359576     1.121685     3.640317
 C     0.985217    -0.852262     3.811378
 H     0.665328    -1.940999     1.980262
 H     0.374844    -1.535628     4.406386
 H     1.448265     0.444247     5.477814
 H     2.833491     1.991034     4.102158
 H     3.148518     1.575359     1.693198
 H     2.749528    -2.819775     0.631637
 H     3.351243    -2.502189    -0.993108
 C     4.645686    -1.788618     0.599761
 C     4.789110    -1.650165     1.986909
 H     3.921022    -1.816167     2.628460
 C     5.775313    -1.602598    -0.227680
 C     5.706679    -1.801200    -1.715841
 H     4.983208    -1.126538    -2.197933
 H     5.399997    -2.828188    -1.972105
 H     6.686420    -1.622110    -2.179308
 C     6.008626    -1.302407     2.560181
 H     6.089694    -1.197189     3.644502
 C     6.993225    -1.252157     0.366040
 H     7.868165    -1.108561    -0.274157
 C     7.116683    -1.092413     1.744087
 H     8.080655    -0.816405     2.178039
 H     4.191626     0.587042    -0.209041
 H     3.470173     0.310367    -1.789852
 C     2.792346     2.094380    -0.827181
 C     1.501723     2.492603    -0.475237
 H     0.779598     1.734504    -0.169001
 C     3.722956     3.070277    -1.246588
 C     5.117976     2.681054    -1.640466
 H     5.117776     1.966544    -2.480065
 H     5.655417     2.187693    -0.813656
 H     5.703429     3.558639    -1.946795
 C     1.117015     3.830514    -0.522062
 H     0.098085     4.110394    -0.246113
 C     3.322655     4.408686    -1.290699
 H     4.043692     5.164495    -1.614664
 C     2.032397     4.794467    -0.931388
 H     1.745329     5.847920    -0.973395
