 118
scf done:    -3518.769023
 C     0.469304    -2.463573    -2.916849
 H     1.121826    -1.870503    -3.560233
 H     0.852107    -3.463277    -2.685655
 C    -0.930819    -2.226819    -2.920972
 H    -1.353308    -1.455923    -3.571527
 H    -1.628608    -3.038871    -2.689645
 H     0.110833    -0.120024    -2.148075
Rh    -0.083737    -1.346769    -1.164266
 C    -1.981011     1.631834    -0.566382
 C    -3.435340    -0.900777    -0.944764
 C    -2.112226    -0.215795     1.576966
 C     1.645898     0.134635     1.596273
 C     3.516692    -1.248021    -0.087977
 C     2.303443     1.099136    -1.119562
 P     1.850420    -0.420544    -0.143534
 P    -1.884822    -0.191090    -0.255345
 C    -0.372501    -2.966389    -0.202029
 O    -0.563636    -4.028870     0.195683
 C    -2.935198     2.463341     0.043583
 H    -3.686243     2.036923     0.707741
 C    -1.066593     2.220865    -1.436977
 H    -0.322883     1.584984    -1.922024
 C    -2.959446     3.827011    -0.209107
 H    -3.699298     4.475963     0.264180
 C    -1.083930     3.588557    -1.709004
 H    -0.340025     3.995171    -2.394510
 C    -2.032218     4.404451    -1.087151
 O    -2.118851     5.742452    -1.262993
 C    -1.224567     6.356334    -2.144558
 H    -1.326508     5.968434    -3.173897
 H    -1.462627     7.427968    -2.143455
 H    -0.173941     6.224473    -1.827578
 C    -3.928122    -2.110692    -0.421865
 O    -3.257916    -2.591180     0.639685
 C    -3.563436    -3.843245     1.176934
 H    -2.835640    -4.007439     1.980709
 H    -4.585456    -3.872723     1.596467
 H    -3.459014    -4.645106     0.426502
 C    -4.044612    -0.393019    -2.105366
 O    -3.467912     0.690503    -2.654519
 C    -4.059939     1.332302    -3.743116
 H    -3.436035     2.210092    -3.956064
 H    -5.085564     1.669889    -3.511846
 H    -4.088890     0.685608    -4.638063
 C    -5.170519    -1.016466    -2.662083
 H    -5.647534    -0.605461    -3.551068
 C    -5.041064    -2.750421    -0.978338
 H    -5.416455    -3.681281    -0.554144
 C    -5.659633    -2.184405    -2.088822
 H    -6.531419    -2.674967    -2.528411
 C    -3.255416     0.037450     2.246979
 O    -4.412118     0.276256     1.565236
 C    -5.557010    -0.443090     1.944166
 H    -6.280189    -0.337108     1.124918
 H    -5.331531    -1.513662     2.075672
 H    -6.012396    -0.053963     2.872198
 C    -0.850798    -0.507849     2.359229
 O    -0.659590    -1.890279     2.269169
 C     0.527685    -2.465768     2.745754
 H     0.281876    -3.486728     3.074861
 H     0.962955    -1.920419     3.599841
 H     1.291558    -2.530169     1.955457
 C    -0.863749     0.034121     3.807259
 H    -0.284676    -0.651846     4.444767
 C    -3.300920     0.226418     3.699962
 H    -4.276452     0.402411     4.158725
 C    -2.182445     0.280095     4.437800
 H    -2.228608     0.487121     5.511021
 C     0.258843     0.542560     1.983409
 H    -0.125254     1.198474     1.190529
 C     2.653353     0.242410     2.484389
 H     3.665191    -0.042736     2.195501
 C     0.075894     1.200236     3.380568
 H    -0.451454     2.166157     3.350003
 C     2.485339     0.796681     3.820533
 H     3.362149     0.837947     4.467848
 C     1.298193     1.306077     4.222422
 O     1.040053     1.888725     5.407681
 C     2.085877     1.999187     6.332767
 H     2.922230     2.595683     5.927642
 H     1.678075     2.503118     7.218191
 H     2.472930     1.006906     6.624601
 C     4.716422    -0.503613    -0.102512
 O     4.615833     0.813437     0.160099
 C     5.640518     1.688687    -0.212461
 H     5.240366     2.703036    -0.084711
 H     6.537124     1.572931     0.421959
 H     5.924655     1.551972    -1.269827
 C     3.629263    -2.648663    -0.211064
 O     2.504182    -3.368091    -0.067929
 C     2.536424    -4.751951    -0.282463
 H     1.510647    -5.108952    -0.139733
 H     3.199853    -5.260815     0.438557
 H     2.865777    -4.994641    -1.307413
 C     4.867751    -3.259061    -0.460825
 H     4.939828    -4.338859    -0.578084
 C     5.954890    -1.104942    -0.357757
 H     6.865886    -0.507825    -0.383158
 C     6.013110    -2.479004    -0.548946
 H     6.975778    -2.957085    -0.746166
 C     2.866505     0.886487    -2.394129
 O     3.054538    -0.399522    -2.740288
 C     3.714546    -0.722711    -3.926920
 H     3.783106    -1.817521    -3.951873
 H     3.157595    -0.379307    -4.816319
 H     4.734353    -0.299283    -3.953993
 C     2.099764     2.428425    -0.713536
 O     1.542147     2.623833     0.494739
 C     1.318148     3.919138     0.968391
 H     0.876777     3.809855     1.967076
 H     0.610533     4.471082     0.326793
 H     2.258783     4.490994     1.056831
 C     2.463177     3.502721    -1.541348
 H     2.300564     4.528540    -1.213357
 C     3.227748     1.951386    -3.227716
 H     3.660538     1.766414    -4.210047
 C     3.022030     3.254557    -2.788275
 H     3.300613     4.092380    -3.432091
