 102
scf done:    -2935.550375
 C    -0.326935     3.433953    -0.819820
 H    -0.880191     3.634557    -1.742225
 H    -0.776066     3.876841     0.073869
 C     1.073949     3.249042    -0.885875
 H     1.576108     3.291300    -1.857826
 H     1.699851     3.544523    -0.041677
 H     0.187516     1.772446     1.005523
Rh     0.129175     1.336124    -0.525805
 C    -1.534004    -0.897463     1.719515
 C    -3.168743     1.329393     0.805526
 C    -2.536469    -0.876855    -1.040490
 C     1.863741    -1.740519     0.156975
 C     3.273336     0.342262    -1.496553
 C     3.059879     0.532265     1.414666
 P     2.056275     0.097567    -0.097151
 P    -1.764208     0.239539     0.247211
 C    -0.036491     0.852623    -2.355720
 O    -0.147280     0.558266    -3.462298
 H    -1.111068    -1.801196     1.237795
 C    -2.784256    -1.325360     2.495853
 H    -3.588203    -1.661439     1.829587
 H    -3.174043    -0.455256     3.052659
 C    -2.439802    -2.424998     3.497137
 H    -3.346744    -2.732212     4.042380
 H    -2.096273    -3.317400     2.943103
 C    -1.358487    -1.975204     4.472561
 H    -1.080008    -2.798125     5.150575
 H    -1.765298    -1.170941     5.111862
 C    -0.130472    -1.449515     3.737987
 H     0.367479    -2.287105     3.214284
 H     0.607445    -1.052692     4.454719
 C    -0.494921    -0.379964     2.714189
 H    -0.901244     0.509556     3.229353
 H     0.392304    -0.025900     2.175038
 H    -3.795830     0.773674     1.516039
 H    -2.670032     2.132596     1.374582
 C    -4.057512     1.912786    -0.259643
 C    -3.562097     2.398163    -1.476318
 H    -2.487349     2.355206    -1.661150
 C    -5.439845     1.981593    -0.039979
 H    -5.852309     1.607000     0.901063
 C    -4.411885     2.926620    -2.444413
 H    -4.027852     3.300799    -3.395260
 C    -6.304659     2.511990    -0.994340
 H    -7.381439     2.567279    -0.824462
 C    -5.776558     2.978488    -2.191357
 F    -6.595707     3.482484    -3.113468
 H    -2.926638    -0.188139    -1.805289
 H    -1.680228    -1.391768    -1.498970
 C    -3.571956    -1.872215    -0.624265
 C    -3.204265    -3.187704    -0.311795
 H    -2.162253    -3.495973    -0.427145
 C    -4.922087    -1.517509    -0.504390
 H    -5.236752    -0.505490    -0.767718
 C    -4.137139    -4.111768     0.150803
 H    -3.854952    -5.136142     0.400481
 C    -5.868459    -2.428647    -0.043820
 H    -6.921370    -2.157952     0.054751
 C    -5.461227    -3.714860     0.290343
 F    -6.361377    -4.589726     0.737470
 H     1.116082    -1.751344     0.972247
 C     3.063606    -2.559697     0.640592
 H     3.504295    -2.111546     1.543815
 H     3.853411    -2.563858    -0.125356
 C     2.647260    -3.998949     0.937362
 H     3.524481    -4.582267     1.260453
 H     1.939351    -4.005433     1.786962
 C     1.986599    -4.653784    -0.269774
 H     1.673444    -5.682341    -0.028370
 H     2.726201    -4.735617    -1.086547
 C     0.796947    -3.833175    -0.753670
 H     0.020112    -3.831697     0.033607
 H     0.339331    -4.294034    -1.644141
 C     1.198824    -2.393581    -1.053715
 H     1.896224    -2.384248    -1.907624
 H     0.325386    -1.796394    -1.357639
 H     2.662019     0.290382    -2.408782
 H     3.567136     1.399786    -1.397269
 C     4.459027    -0.564748    -1.620218
 C     5.597401    -0.429853    -0.813454
 H     5.667006     0.394441    -0.101751
 C     4.447157    -1.608245    -2.556668
 H     3.591054    -1.714054    -3.227702
 C     6.658169    -1.328121    -0.893903
 H     7.542371    -1.226301    -0.262238
 C     5.497118    -2.516382    -2.654042
 H     5.485041    -3.330426    -3.381040
 C     6.588996    -2.372692    -1.806894
 F     7.596549    -3.239592    -1.885832
 H     2.541347     0.044271     2.254269
 H     4.043946     0.049022     1.329740
 C     3.192320     2.000307     1.678063
 C     2.278229     2.656434     2.512861
 H     1.486613     2.081277     2.996873
 C     4.199635     2.765888     1.078623
 H     4.936969     2.286933     0.430720
 C     2.350188     4.028510     2.730198
 H     1.637006     4.543626     3.375908
 C     4.289276     4.140674     1.284336
 H     5.071996     4.740074     0.816526
 C     3.355069     4.757412     2.105579
 F     3.430340     6.071704     2.308250
