  94
scf done:    -2756.687667
 C     0.717462    -3.479754    -1.740240
 H     1.350636    -3.521279    -2.630542
 H     1.160331    -3.932279    -0.849647
 C    -0.684019    -3.392179    -1.865008
 H    -1.144497    -3.370637    -2.856764
 H    -1.331899    -3.771733    -1.070719
 H    -0.076696    -2.000009     0.168148
Rh     0.112580    -1.441295    -1.306381
 O     2.051981    -0.046859     1.107415
 O     3.333704    -1.395911    -0.623592
 O     2.547150     0.894739    -1.122176
 O    -2.074909     1.015817    -1.773876
 O    -3.137203    -0.817196    -0.508742
 O    -1.411888     0.623207     0.692822
 P    -1.624711    -0.150795    -0.761628
 P     1.965132    -0.507916    -0.448271
 C     0.300670    -0.817598    -3.116652
 O     0.392564    -0.433727    -4.189416
 C     1.214360    -0.529866     2.164444
 H     0.229910    -0.765712     1.731957
 C     1.054732     0.606939     3.148645
 H     0.611416     1.479237     2.647814
 H     2.028971     0.896501     3.572163
 H     0.390406     0.307742     3.972865
 C     1.820007    -1.784477     2.757674
 H     1.864017    -2.583713     2.002080
 H     2.842270    -1.591463     3.116693
 H     1.210065    -2.144564     3.600268
 C     4.511953    -1.196052     0.059052
 C     5.249776    -0.024103    -0.085150
 H     4.869770     0.759858    -0.740901
 C     4.966421    -2.230178     0.876677
 H     4.370818    -3.140511     0.961119
 C     6.455006     0.140255     0.607431
 C     7.249053     1.403412     0.437308
 H     7.709701     1.447695    -0.563143
 H     6.609609     2.293823     0.536554
 H     8.056185     1.476190     1.179666
 C     6.167182    -2.072131     1.560825
 H     6.532189    -2.876150     2.204597
 C     6.903935    -0.894949     1.433679
 H     7.843277    -0.778867     1.980438
 C     1.908959     2.101191    -0.999984
 C     2.089331     2.862620     0.155310
 H     2.693240     2.444515     0.962095
 C     1.138862     2.581160    -2.058321
 H     1.012781     1.971314    -2.953014
 C     1.506325     4.128150     0.269411
 C     1.653217     4.919631     1.536430
 H     0.883708     4.623244     2.269988
 H     2.632206     4.750348     2.007572
 H     1.538506     5.998088     1.355958
 C     0.564702     3.845096    -1.951405
 H    -0.032826     4.235488    -2.778112
 C     0.747966     4.614180    -0.803723
 H     0.292897     5.605997    -0.735714
 C    -3.375220     1.625402    -1.923379
 H    -3.915863     1.536920    -0.968038
 C    -4.133851     0.890574    -3.009001
 H    -4.274789    -0.163096    -2.733982
 H    -3.579218     0.937052    -3.958703
 H    -5.123378     1.347536    -3.160158
 C    -3.140611     3.084645    -2.242346
 H    -2.571397     3.569325    -1.438237
 H    -2.575744     3.183235    -3.181792
 H    -4.102403     3.606467    -2.355252
 C    -3.322964    -2.015868     0.120990
 C    -2.648501    -2.338457     1.297550
 H    -1.958642    -1.616121     1.736687
 C    -4.222552    -2.917749    -0.449760
 H    -4.737708    -2.642411    -1.371406
 C    -2.832499    -3.586456     1.904310
 C    -2.054376    -3.930993     3.140836
 H    -2.215353    -3.185384     3.935296
 H    -2.336952    -4.916223     3.536426
 H    -0.973042    -3.948184     2.928208
 C    -4.424050    -4.149159     0.162769
 H    -5.123789    -4.862605    -0.278971
 C    -3.729115    -4.488159     1.324999
 H    -3.885124    -5.465934     1.787379
 C    -2.226742     1.599651     1.209086
 C    -3.422748     1.267559     1.842442
 H    -3.724821     0.220076     1.900170
 C    -1.803764     2.924496     1.121349
 H    -0.864009     3.148524     0.615379
 C    -4.231018     2.269590     2.392169
 C    -5.508179     1.907210     3.093463
 H    -6.047770     1.110914     2.559654
 H    -5.305248     1.534753     4.111270
 H    -6.177309     2.774133     3.186457
 C    -2.604321     3.921988     1.669760
 H    -2.285986     4.965381     1.601700
 C    -3.808771     3.600595     2.294440
 H    -4.431735     4.393622     2.716143
