 122
scf done:    -3297.190985
 C    -0.260288    -1.985624    -2.986173
 H    -0.969012    -2.817195    -2.989089
 H    -0.475251    -1.214470    -3.730841
 C     1.067172    -2.178818    -2.552590
 H     1.379362    -3.168352    -2.210780
 H     1.883564    -1.559915    -2.928468
 H     0.095654     0.196233    -1.875817
Rh    -0.010584    -1.129233    -1.004349
 C    -2.770122     0.952620    -1.730412
 C    -3.463669    -0.942969     0.283171
 C    -1.568445     1.114211     1.014887
 C     2.108708    -0.256668     1.932285
 C     3.517209    -0.930027    -0.483823
 C     2.053437     1.616768    -0.380803
 P     1.898391    -0.187248     0.074971
 P    -1.964792    -0.036489    -0.370423
 C    -0.320465    -2.681391     0.041596
 O    -0.575118    -3.616252     0.668212
 H    -1.941089     1.574157    -2.102792
 C    -3.943634     1.850366    -1.347216
 H    -3.681948     2.513389    -0.513141
 H    -4.775430     1.219045    -0.991429
 C    -4.413895     2.659779    -2.553140
 H    -5.262453     3.304806    -2.269447
 H    -3.601097     3.338020    -2.872349
 C    -4.801234     1.755417    -3.717781
 H    -5.090882     2.355577    -4.596436
 H    -5.693975     1.169602    -3.432411
 C    -3.671968     0.794085    -4.071059
 H    -2.819201     1.366802    -4.479818
 H    -3.991466     0.102733    -4.868450
 C    -3.199458     0.005853    -2.853726
 H    -4.020324    -0.638506    -2.492805
 H    -2.370836    -0.663147    -3.115625
 C    -4.363471    -0.379069     1.216164
 O    -4.186916     0.919394     1.521754
 C    -4.928492     1.523060     2.538430
 H    -4.535066     2.542909     2.637976
 H    -6.004388     1.571305     2.293455
 H    -4.804784     1.001114     3.503438
 C    -3.717466    -2.270628    -0.120798
 O    -2.948815    -2.764867    -1.105612
 C    -3.030086    -4.121185    -1.436647
 H    -2.255478    -4.301490    -2.192456
 H    -4.013734    -4.381568    -1.865341
 H    -2.828141    -4.763889    -0.563380
 C    -4.742653    -3.032325     0.461851
 H    -4.908121    -4.063274     0.153877
 C    -5.391257    -1.131490     1.798217
 H    -6.063479    -0.680874     2.527154
 C    -5.560496    -2.458456     1.423474
 H    -6.360255    -3.050107     1.875490
 C    -1.336046     2.491513     0.875778
 O    -1.301329     2.982624    -0.380040
 C    -1.399018     4.361393    -0.589141
 H    -1.427864     4.508370    -1.676467
 H    -2.321816     4.773530    -0.142757
 H    -0.524683     4.900280    -0.190954
 C    -1.469874     0.562247     2.306764
 O    -1.620086    -0.775274     2.374889
 C    -1.962437    -1.394057     3.582289
 H    -2.170682    -2.443526     3.338093
 H    -2.866857    -0.939885     4.022785
 H    -1.140904    -1.355593     4.316430
 C    -1.265296     1.361222     3.434548
 H    -1.215699     0.916300     4.428203
 C    -1.163144     3.307735     2.002772
 H    -1.031391     4.382994     1.886486
 C    -1.137746     2.737197     3.269803
 H    -0.996019     3.374950     4.145850
 H     1.424812     0.527220     2.287091
 C     3.527624     0.070639     2.397360
 H     3.878239     1.008472     1.945379
 H     4.206776    -0.720834     2.035070
 C     3.611995     0.137015     3.918936
 H     4.647774     0.349010     4.233081
 H     2.996819     0.980945     4.280709
 C     3.112369    -1.152257     4.559269
 H     3.134973    -1.075207     5.659245
 H     3.796134    -1.977574     4.289445
 C     1.708394    -1.490634     4.072524
 H     1.014277    -0.704438     4.422850
 H     1.362374    -2.438344     4.518437
 C     1.637482    -1.571904     2.549923
 H     2.264088    -2.404235     2.195927
 H     0.611167    -1.785744     2.226666
 C     4.643957    -0.188856    -0.897316
 O     4.637717     1.131570    -0.637629
 C     5.532461     1.985884    -1.284987
 H     5.210359     3.007743    -1.044068
 H     6.570550     1.843805    -0.934838
 H     5.502521     1.851202    -2.380181
 C     3.624057    -2.335536    -0.560538
 O     2.627567    -3.043861     0.002252
 C     2.633540    -4.440648    -0.062149
 H     1.719974    -4.774902     0.444386
 H     3.512840    -4.868993     0.450166
 H     2.616879    -4.801803    -1.105599
 C     4.722021    -2.960487    -1.165705
 H     4.769805    -4.045483    -1.242942
 C     5.741957    -0.802900    -1.514785
 H     6.588929    -0.206938    -1.852866
 C     5.761967    -2.183217    -1.658526
 H     6.617965    -2.665801    -2.136262
 C     2.007937     2.730025     0.483291
 O     1.949724     2.510535     1.814133
 C     2.178304     3.558061     2.707560
 H     2.169579     3.114634     3.711555
 H     3.158311     4.035511     2.530428
 H     1.388280     4.325858     2.662084
 C     2.160372     1.901736    -1.761086
 O     2.358471     0.844696    -2.569373
 C     2.127970     0.971915    -3.943515
 H     2.192588    -0.038561    -4.365901
 H     2.885124     1.609706    -4.432746
 H     1.122898     1.379630    -4.144264
 C     2.136917     3.206069    -2.264386
 H     2.204660     3.385647    -3.336420
 C     2.033098     4.043536    -0.012514
 H     2.004428     4.886097     0.676703
 C     2.080057     4.273738    -1.379329
 H     2.083114     5.298430    -1.759012
