  76
scf done:    -2148.358023
 C     0.174660    -3.504571     1.844286
 H     0.853293    -4.249059     1.415748
 H     0.506311    -3.098627     2.804520
 C    -1.214691    -3.580353     1.561362
 H    -1.590380    -4.382950     0.918801
 H    -1.934372    -3.231292     2.307678
 H    -0.666955    -1.103287     1.769265
Rh    -0.349200    -1.950293     0.449138
 C     1.972151     0.374481     1.790461
 C     3.056384    -1.864124     0.320319
 C     1.877182     0.438077    -1.118292
 C    -2.965452    -1.771621    -1.844296
 C    -3.644187    -0.827147     0.793769
 C    -2.184732     0.805401    -1.125633
 P    -2.222782    -0.902772    -0.408520
 P     1.599206    -0.694928     0.355604
 C     0.057414    -2.942797    -1.119720
 O     0.323807    -3.517232    -2.079649
 H     1.202309     1.154479     1.856357
 H     1.920840    -0.246216     2.696339
 H     2.954451     0.859795     1.705328
 H     2.794881    -2.616925    -0.438017
 H     2.997908    -2.378103     1.293021
 C     4.423814    -1.318060     0.064007
 C     5.169601    -0.697670     1.075618
 H     4.760206    -0.640640     2.087007
 C     4.991725    -1.410853    -1.214215
 H     4.435587    -1.913628    -2.010579
 C     6.425660    -0.158610     0.810017
 H     6.986742     0.326826     1.612135
 C     6.251938    -0.879176    -1.481831
 H     6.674447    -0.963647    -2.485929
 C     6.970555    -0.241775    -0.471373
 H     7.957067     0.179174    -0.678572
 H     0.876560     0.580138    -1.549489
 H     2.462306    -0.142537    -1.848694
 C     2.512220     1.770560    -0.842981
 C     3.900362     1.951664    -0.883410
 H     4.547409     1.117361    -1.155958
 C     1.710198     2.868797    -0.504496
 H     0.624763     2.755750    -0.476158
 C     4.468118     3.187036    -0.578805
 H     5.554400     3.300770    -0.616738
 C     2.276420     4.103839    -0.198603
 H     1.624573     4.940492     0.064320
 C     3.660335     4.268213    -0.229620
 H     4.107150     5.236009     0.010820
 H    -3.160522    -2.816134    -1.562068
 H    -3.898363    -1.299843    -2.187348
 H    -2.234564    -1.775699    -2.666039
 H    -3.257755    -0.310096     1.683880
 H    -3.807437    -1.875825     1.086578
 C    -4.899395    -0.188510     0.288040
 C    -5.881901    -0.946216    -0.363910
 H    -5.747171    -2.027003    -0.461293
 C    -5.108241     1.191097     0.424714
 H    -4.360129     1.797960     0.940858
 C    -7.029272    -0.344481    -0.876807
 H    -7.784198    -0.955565    -1.377696
 C    -6.253577     1.794917    -0.088902
 H    -6.394951     2.872015     0.029804
 C    -7.217282     1.030584    -0.745718
 H    -8.116647     1.503756    -1.146818
 H    -3.155087     0.986544    -1.618306
 H    -1.435780     0.751014    -1.935906
 C    -1.871804     1.967076    -0.219715
 C    -1.388470     1.813799     1.083944
 H    -1.197798     0.810003     1.471727
 C    -2.074796     3.268153    -0.702420
 H    -2.458019     3.407411    -1.717165
 C    -1.115477     2.926746     1.880386
 H    -0.737134     2.781549     2.895301
 C    -1.796335     4.379845     0.087668
 H    -1.958623     5.383571    -0.312705
 C    -1.314852     4.213241     1.387024
 H    -1.097778     5.083630     2.010528
