  98
scf done:    -2760.425396
 C     0.452798    -3.633938    -1.300105
 H     0.993506    -3.498833    -2.237815
 H     1.002549    -4.207333    -0.547314
 C    -0.961527    -3.639108    -1.319317
 H    -1.482596    -3.524326    -2.273069
 H    -1.518454    -4.231169    -0.585367
 H    -0.249048    -1.249851    -2.024504
Rh    -0.249272    -1.753785    -0.505896
 C    -1.544279     1.528586    -0.710167
 C    -3.513395    -0.430422    -1.266207
 C    -2.630637    -0.128965     1.483293
 C     1.875815     0.465205     1.320717
 C     3.112570    -1.819924    -0.008852
 C     2.409002     0.599464    -1.484411
 P     1.773615    -0.571438    -0.207981
 P    -1.992517    -0.190528    -0.247632
 C    -0.363321    -2.532780     1.225033
 O    -0.487050    -3.109358     2.210098
 C    -2.029985     2.105897    -1.895594
 H    -2.805818     1.597463    -2.471193
 C    -0.543131     2.216981    -0.018292
 H    -0.109735     1.789124     0.883939
 C    -1.519250     3.304908    -2.370714
 H    -1.882775     3.742739    -3.302457
 C    -0.030253     3.426768    -0.476633
 H     0.764782     3.907384     0.092777
 C    -0.499284     3.968527    -1.676743
 O    -0.019692     5.092740    -2.241462
 C     1.102944     5.701975    -1.665538
 H     1.961042     5.008024    -1.622217
 H     1.362547     6.553587    -2.307184
 H     0.893029     6.076405    -0.648057
 C    -3.394084    -1.307444    -2.348621
 H    -2.428525    -1.790371    -2.504373
 C    -4.738524     0.240947    -1.043329
 C    -4.952574     1.243669     0.052995
 H    -4.102051     1.932970     0.147238
 H    -5.074369     0.755302     1.032086
 H    -5.856606     1.836513    -0.144341
 C    -4.463731    -1.562143    -3.202195
 H    -4.342600    -2.251461    -4.040925
 C    -5.804583    -0.039721    -1.907725
 H    -6.757567     0.470513    -1.742112
 C    -5.681793    -0.931341    -2.970451
 H    -6.537922    -1.121374    -3.622587
 C    -2.376845     0.963652     2.320988
 H    -1.886294     1.850551     1.921504
 C    -3.315824    -1.251893     2.003628
 C    -3.701861    -2.431271     1.160353
 H    -2.933247    -2.671912     0.411595
 H    -4.628655    -2.224139     0.601008
 H    -3.873295    -3.318025     1.786161
 C    -2.761518     0.958123     3.658220
 H    -2.554389     1.829872     4.284149
 C    -3.686873    -1.237498     3.353639
 H    -4.209506    -2.108633     3.758142
 C    -3.414306    -0.153739     4.182726
 H    -3.718578    -0.177266     5.231923
 C     2.478074     1.734869     1.354261
 H     2.976879     2.126286     0.467280
 C     1.197819     0.050837     2.471677
 H     0.676999    -0.904665     2.483196
 C     2.403471     2.541158     2.479987
 H     2.860191     3.532785     2.494974
 C     1.122208     0.842328     3.615349
 H     0.563889     0.470999     4.474382
 C     1.722393     2.105430     3.625134
 O     1.684153     2.958836     4.664140
 C     0.984416     2.581531     5.818201
 H     1.416066     1.677800     6.282719
 H     1.066806     3.417741     6.523725
 H    -0.083054     2.394283     5.606173
 C     3.534220    -2.176468     1.277576
 H     3.142080    -1.636609     2.141817
 C     3.627898    -2.511898    -1.127839
 C     3.262293    -2.169674    -2.543700
 H     3.871220    -1.333072    -2.922965
 H     2.212053    -1.860913    -2.635882
 H     3.432216    -3.032033    -3.203747
 C     4.453137    -3.201956     1.478600
 H     4.765421    -3.461024     2.492978
 C     4.551996    -3.538689    -0.899605
 H     4.953470    -4.078636    -1.761918
 C     4.966762    -3.888738     0.382112
 H     5.686826    -4.698437     0.521990
 C     1.461160     1.075228    -2.397057
 H     0.441410     0.690939    -2.333995
 C     3.746187     1.059766    -1.564807
 C     4.862795     0.584324    -0.677063
 H     5.266816    -0.377848    -1.029880
 H     4.548092     0.420786     0.360693
 H     5.686031     1.312865    -0.678643
 C     1.792065     2.010281    -3.372919
 H     1.024972     2.372472    -4.060312
 C     4.055170     2.001705    -2.555802
 H     5.084083     2.366152    -2.624154
 C     3.099373     2.479125    -3.449302
 H     3.381672     3.214385    -4.207135
