 102
scf done:    -2538.793341
 C     0.510232     0.824107     3.640524
 H     1.145864     0.160766     4.236508
 H     0.882674     1.850165     3.567846
 C    -0.887396     0.575688     3.584330
 H    -1.299613    -0.273640     4.138297
 H    -1.589379     1.405477     3.463392
 H    -0.241163     1.559550     1.379874
Rh    -0.007417     0.027608     1.707236
 C     2.008284     1.801125    -0.659228
 C     3.451041    -0.180024     0.872459
 C     1.643183    -1.054665    -1.151364
 C    -2.016136    -1.620946    -0.877906
 C    -3.440539     0.113874     0.908769
 C    -1.685638     1.260966    -1.052619
 P    -1.767339    -0.103174     0.181107
 P     1.773422     0.172514     0.210573
 C     0.343295    -1.762502     2.260345
 O     0.607068    -2.805098     2.667573
 H     1.083734     1.904609    -1.258593
 C     3.227594     1.881991    -1.578650
 H     3.248915     1.046971    -2.294855
 H     4.139538     1.783619    -0.965309
 C     3.261734     3.216227    -2.319595
 H     4.146532     3.259455    -2.975677
 H     2.377636     3.286972    -2.979520
 C     3.260267     4.389243    -1.346528
 H     3.241351     5.345911    -1.894007
 H     4.202912     4.378601    -0.769842
 C     2.082424     4.301461    -0.383423
 H     1.142492     4.429653    -0.948471
 H     2.121767     5.122626     0.350943
 C     2.034928     2.959555     0.339468
 H     2.922514     2.854502     0.990059
 H     1.153938     2.901001     0.995793
 C     3.722040     0.166969     2.198439
 H     2.916381     0.571219     2.814189
 C     4.471470    -0.734505     0.088269
 H     4.262819    -1.016581    -0.947103
 C     5.000768    -0.025307     2.720156
 H     5.210796     0.248901     3.756919
 C     5.753149    -0.945544     0.602184
 C     6.833436    -1.560007    -0.240645
 H     6.508769    -1.682272    -1.283438
 H     7.744607    -0.941648    -0.238102
 H     7.117114    -2.554400     0.140759
 C     6.004850    -0.577002     1.930913
 H     7.002533    -0.733005     2.351602
 C     1.325090    -0.720335    -2.472218
 H     1.224013     0.322705    -2.771153
 C     1.748904    -2.409531    -0.809130
 H     1.991492    -2.683554     0.221766
 C     1.109319    -1.725476    -3.414995
 H     0.852853    -1.455669    -4.442759
 C     1.547445    -3.427275    -1.743828
 C     1.690214    -4.865709    -1.339056
 H     2.752916    -5.149036    -1.262921
 H     1.234449    -5.048895    -0.354549
 H     1.217976    -5.540110    -2.067301
 C     1.216803    -3.066229    -3.056840
 H     1.041392    -3.846298    -3.802649
 H    -1.145545    -1.608080    -1.559202
 C    -3.308392    -1.621033    -1.696650
 H    -3.404840    -0.699820    -2.291069
 H    -4.165802    -1.626441    -1.002378
 C    -3.388375    -2.848807    -2.599143
 H    -4.326618    -2.829480    -3.177494
 H    -2.564691    -2.815361    -3.335776
 C    -3.286731    -4.133647    -1.786336
 H    -3.309987    -5.014624    -2.448538
 H    -4.171321    -4.213882    -1.128859
 C    -2.023164    -4.141098    -0.935229
 H    -1.142336    -4.173002    -1.599523
 H    -1.979933    -5.049404    -0.312291
 C    -1.918023    -2.902193    -0.050820
 H    -2.727268    -2.914699     0.701648
 H    -0.970345    -2.918177     0.503476
 C    -3.716605    -0.545356     2.110928
 H    -2.917599    -1.094562     2.613684
 C    -4.456757     0.847964     0.285711
 H    -4.249870     1.363039    -0.656000
 C    -4.994166    -0.481150     2.663155
 H    -5.207760    -1.002735     3.599385
 C    -5.737589     0.937606     0.838649
 C    -6.808343     1.754913     0.174915
 H    -6.989341     2.692262     0.726576
 H    -6.528961     2.024425    -0.853385
 H    -7.764998     1.211799     0.138360
 C    -5.994221     0.255888     2.034970
 H    -6.991562     0.308984     2.481041
 C    -1.436817     1.059559    -2.413954
 H    -1.365262     0.052070    -2.822621
 C    -1.764093     2.576427    -0.574767
 H    -1.942234     2.741609     0.491725
 C    -1.247859     2.152200    -3.261139
 H    -1.037430     1.983705    -4.320390
 C    -1.598042     3.680928    -1.412380
 C    -1.718010     5.074534    -0.867114
 H    -2.775508     5.377937    -0.792336
 H    -1.286390     5.147668     0.141945
 H    -1.209747     5.806164    -1.511333
 C    -1.324062     3.450676    -2.767470
 H    -1.169607     4.299962    -3.438668
