  70
scf done:    -1994.059691
 C    -4.215058     0.648263     0.129858
 H    -4.766626     0.224494     0.975342
 H    -4.240992     1.741293     0.088240
 C    -4.115453    -0.099144    -1.075010
 H    -4.589738    -1.084120    -1.130092
 H    -4.059968     0.421577    -2.035039
 H    -1.977395     1.268534    -0.842101
Rh    -2.212085    -0.105434    -0.062425
 C     0.584041     1.824207     0.623236
 C    -1.712674     2.532429     2.184640
 C    -0.180213     0.186899     2.875900
 C     0.948036    -1.570823    -0.770032
 C    -1.047673    -2.453679    -2.515733
 C     0.050499     0.240815    -2.787111
 P    -0.607799    -0.943515    -1.530603
 P    -0.885056     1.069354     1.413618
 C    -2.559526    -1.672902     0.949350
 O    -2.783274    -2.597516     1.597619
 C     0.425473     2.946966    -0.208228
 H    -0.560434     3.402956    -0.325855
 C     1.854368     1.251665     0.704783
 H     2.021963     0.358367     1.309828
 C     1.492607     3.478055    -0.913781
 H     1.369153     4.348257    -1.561202
 C     2.939284     1.772809    -0.002636
 H     3.908091     1.281166     0.084624
 C     2.764530     2.892727    -0.819097
 O     3.743194     3.466800    -1.547250
 C     5.024756     2.906292    -1.507920
 H     5.027888     1.862090    -1.868796
 H     5.655273     3.512552    -2.170608
 H     5.452759     2.927974    -0.490001
 H    -2.128657     3.111220     1.345538
 C    -2.825335     2.133060     3.140679
 H    -2.433084     1.637462     4.042105
 H    -3.523359     1.437316     2.652202
 H    -0.957159     3.166745     2.676456
 H    -3.394872     3.014575     3.472071
 H     0.443896    -0.622131     2.464650
 C     0.586056     1.017895     3.892507
 H    -0.062741     1.755088     4.388466
 H     1.415520     1.569692     3.425550
 H    -1.040061    -0.322452     3.341347
 H     1.012055     0.376378     4.679994
 C     2.226617    -1.366608    -1.311129
 H     2.351657    -0.803727    -2.237093
 C     0.859989    -2.297831     0.420029
 H    -0.119622    -2.474226     0.869769
 C     3.363348    -1.846116    -0.676593
 H     4.358816    -1.676937    -1.092275
 C     1.990424    -2.794660     1.068274
 H     1.868688    -3.355085     1.995596
 C     3.258992    -2.560072     0.524485
 O     4.414790    -2.976806     1.076701
 C     4.367773    -3.695174     2.277864
 H     3.804408    -4.638795     2.170933
 H     5.405673    -3.930552     2.545101
 H     3.915130    -3.103052     3.093012
 H    -1.122639    -3.255785    -1.762704
 C    -2.336019    -2.366410    -3.315058
 H    -2.261528    -1.643162    -4.140077
 H    -3.170127    -2.052847    -2.671937
 H    -0.184062    -2.704787    -3.155509
 H    -2.585980    -3.343639    -3.756169
 H     0.690433    -0.318264    -3.490317
 C    -0.994461     1.045570    -3.542018
 H    -1.651541     1.577781    -2.838752
 H    -1.630883     0.412697    -4.176936
 H     0.703963     0.924468    -2.219739
 H    -0.507243     1.788576    -4.191830
