 114
scf done:    -2695.907602
 C     0.396198     0.889510    -3.766303
 H     1.091308     1.689113    -4.043332
 H     0.700615    -0.101240    -4.114274
 C    -0.985293     1.184416    -3.613208
 H    -1.340077     2.208008    -3.771647
 H    -1.728414     0.417548    -3.851015
 H    -0.537935    -0.621215    -1.946389
Rh    -0.109658     0.882561    -1.669840
 C     2.227981    -1.767085    -0.916880
 C     3.345820     0.918382    -1.450716
 C     1.949730     0.299161     1.184997
 C    -2.035110     2.388715     0.784249
 C    -3.504285     0.574617    -1.149219
 C    -2.076448    -0.469375     1.162673
 P    -1.913116     0.786691    -0.196972
 P     1.856383     0.048483    -0.682319
 C     0.264201     2.731310    -1.473682
 O     0.426911     3.870663    -1.436616
 H     1.564320    -2.243195    -0.173520
 C     3.659547    -2.222569    -0.625673
 H     4.025632    -1.837767     0.333800
 H     4.319917    -1.815249    -1.409638
 C     3.762657    -3.744236    -0.661007
 H     4.796916    -4.053085    -0.438268
 H     3.134648    -4.164642     0.145051
 C     3.315778    -4.296777    -2.008472
 H     3.345271    -5.398656    -2.007820
 H     4.029166    -3.967687    -2.785987
 C     1.920509    -3.801514    -2.369826
 H     1.191524    -4.243356    -1.666981
 H     1.633395    -4.150158    -3.375291
 C     1.807541    -2.281423    -2.294912
 H     2.454009    -1.823622    -3.066623
 H     0.782238    -1.955320    -2.523062
 H     3.667224     0.234122    -2.251116
 H     2.900762     1.781938    -1.961472
 C     4.525399     1.351116    -0.629350
 C     5.679773     0.561516    -0.568485
 H     5.711601    -0.373930    -1.128392
 C     4.512881     2.584198     0.061323
 C     3.354192     3.530978    -0.040705
 H     2.403567     3.075734     0.272162
 H     3.201322     3.871599    -1.076949
 H     3.516211     4.421615     0.581250
 C     6.784158     0.932867     0.191723
 H     7.664959     0.287515     0.223740
 C     5.628638     2.941714     0.827326
 H     5.611448     3.892498     1.367051
 C     6.754491     2.125792     0.908458
 H     7.609134     2.430549     1.516919
 H     2.223282     1.357386     1.305490
 H     0.896272     0.227161     1.487778
 C     2.821964    -0.563047     2.053845
 C     4.138466    -0.167627     2.321767
 H     4.493409     0.787554     1.934619
 C     2.348080    -1.770677     2.613531
 C     0.911203    -2.193567     2.512064
 H     0.509775    -2.155418     1.491410
 H     0.267158    -1.545165     3.130249
 H     0.775067    -3.221987     2.873219
 C     5.007993    -0.970201     3.052845
 H     6.033120    -0.635618     3.227496
 C     3.239490    -2.570960     3.337815
 H     2.875268    -3.513495     3.756032
 C     4.563113    -2.193239     3.546851
 H     5.235570    -2.843847     4.111063
 H    -0.963018     2.632375     0.894141
 C    -2.617173     2.378383     2.199262
 H    -2.115759     1.619844     2.818595
 H    -3.684950     2.105646     2.179690
 C    -2.450414     3.747578     2.857670
 H    -2.902643     3.736000     3.862702
 H    -1.372574     3.942181     3.005138
 C    -3.046584     4.869133     2.015565
 H    -2.876125     5.843766     2.500767
 H    -4.142979     4.738415     1.960135
 C    -2.471913     4.865637     0.604004
 H    -1.394260     5.104359     0.637880
 H    -2.944521     5.649984    -0.008836
 C    -2.657014     3.505284    -0.058231
 H    -3.737103     3.315763    -0.182947
 H    -2.227224     3.507875    -1.071953
 H    -3.649990     1.542195    -1.655633
 H    -3.212473    -0.122015    -1.944086
 C    -4.766871     0.118255    -0.474068
 C    -5.438463     0.961446     0.420266
 H    -5.032114     1.955267     0.613650
 C    -5.328556    -1.146014    -0.762501
 C    -4.713950    -2.078968    -1.764506
 H    -3.681821    -2.348126    -1.497320
 H    -4.686119    -1.626801    -2.769285
 H    -5.292271    -3.009840    -1.833908
 C    -6.617389     0.577809     1.053476
 H    -7.114124     1.262384     1.745013
 C    -6.511933    -1.519787    -0.113883
 H    -6.939768    -2.501487    -0.334457
 C    -7.154885    -0.679309     0.790469
 H    -8.076795    -1.002671     1.279514
 H    -1.162857    -0.360309     1.771442
 H    -2.906724    -0.126140     1.789950
 C    -2.290380    -1.915635     0.806863
 C    -1.488009    -2.554042    -0.145215
 H    -0.733064    -1.965525    -0.668526
 C    -3.284460    -2.663916     1.475258
 C    -4.154167    -2.054820     2.536451
 H    -4.733625    -1.202450     2.149919
 H    -3.557936    -1.690147     3.388690
 H    -4.871149    -2.791924     2.922256
 C    -1.660935    -3.899285    -0.462376
 H    -1.026528    -4.364674    -1.220082
 C    -3.449071    -4.012358     1.139293
 H    -4.224814    -4.588345     1.651275
 C    -2.652575    -4.633623     0.180532
 H    -2.807600    -5.688032    -0.060317
