  94
scf done:    -2832.185849
 C     0.930388    -2.803932    -1.797988
 H     1.620332    -2.595009    -2.620945
 H     1.372200    -3.384009    -0.983364
 C    -0.461800    -2.867113    -2.051645
 H    -0.822726    -2.730750    -3.076949
 H    -1.105641    -3.492586    -1.430260
 H    -0.154610    -1.930553     0.267939
Rh     0.015571    -1.024008    -1.025238
 C     1.443895     0.099872     2.031049
 C     3.162045    -1.316462     0.214277
 C     2.528716     1.459155    -0.271334
 C    -1.670613     1.861672    -0.154159
 C    -3.431503    -0.101228    -1.277012
 C    -2.558254    -0.429411     1.407714
 P    -1.914312     0.044057    -0.252375
 P     1.757964    -0.135133     0.230412
 C     0.253864    -0.067802    -2.657617
 O     0.427109     0.432342    -3.677087
 C     1.926367     1.206086     2.742648
 C     0.628386    -0.823553     2.698723
 C     0.790516     0.452944     4.741121
 C     0.312075    -0.654919     4.044490
 C     1.595852     1.383102     4.084823
 H     2.548484     1.947437     2.240767
 H     1.971038     2.258482     4.621107
 H     0.528128     0.597557     5.792053
 H    -0.338207    -1.380360     4.538059
 H     0.213501    -1.665353     2.139669
 C     3.506970    -2.108016     1.305966
 H     2.980923    -1.968213     2.252539
 C     3.857416    -1.494688    -0.999167
 O     3.481371    -0.687874    -2.009832
 C     4.046362    -0.840776    -3.278686
 H     5.129354    -0.624269    -3.273759
 H     3.538734    -0.119455    -3.931341
 H     3.886677    -1.859016    -3.675439
 C     4.517625    -3.067640     1.211016
 H     4.770831    -3.679790     2.079312
 C     4.871315    -2.449173    -1.099189
 H     5.410009    -2.587253    -2.037217
 C     5.196752    -3.233451     0.009335
 H     5.989983    -3.979952    -0.077985
 C     1.800237     2.323077    -1.086956
 H     0.780779     2.047606    -1.359551
 C     3.845182     1.825605     0.086615
 O     4.498779     0.991659     0.915471
 C     5.855720     1.186616     1.185872
 H     6.456111     1.207653     0.259791
 H     6.173189     0.331925     1.796616
 H     6.035163     2.119280     1.749892
 C     2.341049     3.519574    -1.556243
 H     1.739304     4.175889    -2.187288
 C     4.401680     3.013525    -0.398007
 H     5.421800     3.292497    -0.132546
 C     3.646286     3.853930    -1.216283
 H     4.092520     4.781247    -1.584617
 C    -2.114807     2.692359    -1.189993
 C    -0.871954     2.416973     0.855223
 C    -1.011865     4.595001    -0.180960
 C    -0.557606     3.773111     0.848933
 C    -1.783233     4.046253    -1.204720
 H    -2.719871     2.274750    -1.998432
 H    -2.135262     4.677609    -2.024572
 H    -0.753983     5.656616    -0.193541
 H     0.069825     4.180852     1.645124
 H    -0.466368     1.782899     1.644679
 C    -3.400555    -0.899111    -2.418385
 H    -2.456348    -1.391788    -2.660099
 C    -4.639573     0.541492    -0.927120
 O    -4.612781     1.313332     0.172133
 C    -5.774267     1.963449     0.598534
 H    -6.133643     2.692106    -0.149157
 H    -5.509399     2.498507     1.519155
 H    -6.584977     1.248268     0.821803
 C    -4.532111    -1.072993    -3.215629
 H    -4.485094    -1.702267    -4.106608
 C    -5.777827     0.368308    -1.721573
 H    -6.714883     0.861154    -1.461252
 C    -5.716486    -0.437905    -2.858866
 H    -6.614035    -0.563137    -3.470006
 C    -2.754438     0.463796     2.460144
 H    -2.579574     1.526424     2.293699
 C    -2.863194    -1.791546     1.623778
 O    -2.766106    -2.600698     0.555710
 C    -3.012662    -3.969503     0.696837
 H    -2.309207    -4.440361     1.405510
 H    -2.869437    -4.415889    -0.294912
 H    -4.046490    -4.166496     1.030891
 C    -3.174395     0.032711     3.717805
 H    -3.306791     0.756242     4.524764
 C    -3.267413    -2.232957     2.888872
 H    -3.484544    -3.287207     3.060925
 C    -3.414967    -1.319549     3.931984
 H    -3.735307    -1.676193     4.914171
