  90
scf done:    -3300.856025
 C     1.250652    -3.612096     0.540236
 H     2.008038    -3.899747    -0.194180
 H     1.616921    -3.538296     1.567149
 C    -0.110871    -3.864184     0.296910
 H    -0.421512    -4.352558    -0.630860
 H    -0.805667    -3.986888     1.130004
 H    -0.030450    -1.591840     1.518045
Rh     0.287027    -1.734732    -0.033163
 C     1.825193     0.959231     1.799406
 O     3.453319    -0.690893     0.651828
 O     2.090487     0.842876    -0.901696
 C    -2.023992     0.345413    -1.736954
 O    -3.098506    -1.630180    -0.432502
 O    -2.119212     0.286683     0.962807
 P    -1.698309    -0.725761    -0.319942
 P     1.874139    -0.196351     0.413936
 C     0.647196    -1.968147    -1.911343
 O     0.847175    -2.112360    -3.027539
 C     2.981935     1.576814     2.307633
 H     3.961871     1.290348     1.923557
 C     0.580859     1.324327     2.315211
 H    -0.325770     0.840336     1.945761
 C     2.884158     2.544588     3.290700
 H     3.771245     3.035282     3.695087
 C     0.472666     2.303341     3.301432
 H    -0.515256     2.565289     3.680634
 C     1.627681     2.923905     3.791650
 O     1.631637     3.878575     4.736460
 C     0.410697     4.300091     5.280813
 H    -0.118325     3.474372     5.787643
 H     0.647589     5.076725     6.018616
 H    -0.254526     4.728653     4.510953
 C     4.021396    -1.715122    -0.049805
 C     3.910293    -1.814520    -1.438427
 H     3.357414    -1.056707    -1.994934
 C     4.741060    -2.672207     0.666946
 H     4.809867    -2.573675     1.751506
 C     4.498821    -2.886428    -2.106555
 H     4.413445    -2.991647    -3.189423
 C     5.341585    -3.735440     0.001445
 H     5.905946    -4.498614     0.540163
 C     5.206074    -3.834752    -1.379426
 F     5.772423    -4.859146    -2.017141
 C     2.838867     1.988844    -0.832662
 C     2.198449     3.203459    -0.583362
 H     1.118035     3.210991    -0.429504
 C     4.220443     1.946373    -1.022428
 H     4.708863     0.990159    -1.215868
 C     2.937548     4.379816    -0.515850
 H     2.462460     5.341770    -0.316465
 C     4.964626     3.121769    -0.954654
 H     6.046572     3.118613    -1.098090
 C     4.314439     4.323000    -0.699048
 F     5.026787     5.447330    -0.630234
 C    -0.953800     1.098325    -2.246011
 H     0.056687     0.947590    -1.855289
 C    -3.303916     0.543051    -2.263476
 H    -4.140268    -0.042918    -1.879321
 C    -1.166472     2.039992    -3.239671
 H    -0.344122     2.633377    -3.643431
 C    -3.525377     1.482112    -3.265873
 H    -4.534445     1.615875    -3.655751
 C    -2.455622     2.245636    -3.753858
 O    -2.571267     3.184068    -4.707493
 C    -3.833495     3.443343    -5.259364
 H    -4.550909     3.789185    -4.494836
 H    -3.693480     4.239000    -6.001607
 H    -4.250444     2.554205    -5.763533
 C    -3.344870    -2.706064     0.373583
 C    -3.837090    -3.864868    -0.227472
 H    -3.984391    -3.873873    -1.308683
 C    -3.135987    -2.663907     1.754524
 H    -2.740578    -1.758468     2.216475
 C    -4.120825    -4.985824     0.545918
 H    -4.503566    -5.904634     0.098216
 C    -3.411303    -3.788335     2.529599
 H    -3.248175    -3.784369     3.608712
 C    -3.899968    -4.935561     1.917750
 F    -4.165494    -6.010047     2.660587
 C    -3.125110     1.212024     0.868194
 C    -4.450799     0.844678     1.100466
 H    -4.686389    -0.190823     1.350723
 C    -2.804267     2.531839     0.546633
 H    -1.761231     2.793450     0.361135
 C    -5.460416     1.799276     1.001533
 H    -6.506273     1.540757     1.176497
 C    -3.809444     3.488150     0.446882
 H    -3.586629     4.525017     0.189442
 C    -5.127545     3.107413     0.671693
 F    -6.094392     4.019910     0.570285
