 114
scf done:    -2396.116283
 C    -1.082393     0.555237    -3.315097
 H    -1.645835    -0.238305    -3.816270
 H    -1.658340     1.472951    -3.172753
 C     0.319552     0.623449    -3.499987
 H     0.809308    -0.121704    -4.134891
 H     0.822900     1.593254    -3.482919
 H    -0.032549     1.460094    -1.168817
Rh    -0.099348    -0.088935    -1.498106
 C    -2.341318     1.820456     0.431973
 C    -3.584097    -0.540632    -0.835392
 C    -2.019612    -0.794291     1.621079
 C     2.164042    -1.497674     0.982506
 C     3.546442     0.007323    -1.064837
 C     1.757008     1.469635     0.926990
 P     1.883177    -0.040686    -0.184504
 P    -1.973192     0.042535    -0.051427
 C    -0.106689    -1.894654    -2.094035
 O    -0.104820    -2.932478    -2.591128
 H    -1.393048     2.108058     0.924220
 C    -3.477979     2.075819     1.424501
 H    -3.413074     1.410481     2.298547
 H    -4.442682     1.860443     0.935382
 C    -3.486065     3.532934     1.880485
 H    -4.301832     3.697823     2.603302
 H    -2.544727     3.748772     2.418801
 C    -3.622214     4.480131     0.695051
 H    -3.588072     5.529478     1.030603
 H    -4.615503     4.334134     0.232720
 C    -2.541355     4.215228    -0.345262
 H    -1.557586     4.491866     0.074639
 H    -2.689533     4.857681    -1.228410
 C    -2.496057     2.750688    -0.771941
 H    -3.424179     2.499102    -1.316979
 H    -1.660204     2.587079    -1.465793
 H    -3.873745     0.338088    -1.442590
 C    -4.742924    -0.862453     0.115140
 H    -4.911403    -0.054484     0.839136
 H    -4.486804    -1.759515     0.705495
 C    -6.031709    -1.141141    -0.655324
 H    -6.846649    -1.372398     0.050250
 H    -6.336416    -0.224519    -1.192561
 C    -5.851288    -2.276377    -1.654605
 H    -6.776266    -2.433849    -2.232956
 H    -5.665842    -3.215766    -1.102472
 C    -4.675494    -2.002819    -2.583679
 H    -4.913405    -1.135174    -3.226035
 H    -4.512359    -2.854827    -3.263438
 C    -3.395379    -1.705045    -1.810417
 H    -3.082871    -2.607337    -1.255656
 H    -2.578918    -1.474060    -2.503157
 H    -3.050207    -0.685072     1.999721
 C    -1.085935    -0.151125     2.645878
 H    -1.318215     0.916540     2.776943
 H    -0.053739    -0.195133     2.266585
 C    -1.158224    -0.858381     3.995662
 H    -0.454526    -0.388790     4.702731
 H    -2.167612    -0.717534     4.423283
 C    -0.870292    -2.348802     3.866455
 H    -0.970564    -2.847613     4.844001
 H     0.180970    -2.487467     3.556439
 C    -1.785513    -3.001480     2.837463
 H    -2.825188    -2.979272     3.211646
 H    -1.525476    -4.065274     2.710620
 C    -1.722251    -2.287949     1.490460
 H    -0.720684    -2.408159     1.047850
 H    -2.421557    -2.759443     0.782865
 H     1.395689    -1.352455     1.762062
 C     3.523003    -1.624697     1.680851
 H     3.795365    -0.702381     2.207869
 H     4.305090    -1.797763     0.922138
 C     3.539870    -2.795705     2.661045
 H     4.521136    -2.848070     3.160446
 H     2.795669    -2.613886     3.458253
 C     3.223585    -4.109918     1.961671
 H     3.205358    -4.942418     2.683700
 H     4.031351    -4.338215     1.242794
 C     1.899362    -4.016191     1.217382
 H     1.078227    -3.926363     1.950989
 H     1.703851    -4.940456     0.650089
 C     1.848576    -2.817819     0.275162
 H     2.564102    -2.969340    -0.553847
 H     0.857452    -2.759572    -0.187925
 H     3.776729    -1.072981    -1.151172
 C     4.720460     0.671294    -0.335453
 H     4.816903     0.309858     0.694849
 H     4.538015     1.755505    -0.267410
 C     6.031912     0.449090    -1.085326
 H     6.859438     0.937075    -0.544457
 H     6.263652    -0.631881    -1.097393
 C     5.949565     0.964732    -2.516290
 H     6.889401     0.763232    -3.055813
 H     5.831614     2.063543    -2.496158
 C     4.765614     0.347345    -3.249676
 H     4.945336    -0.735939    -3.378004
 H     4.677516     0.767058    -4.265042
 C     3.455896     0.542064    -2.492902
 H     3.195219     1.615108    -2.466855
 H     2.630884     0.041954    -3.013161
 H     0.678309     1.429822     1.153499
 C     1.965836     2.780148     0.161465
 H     1.417236     2.740755    -0.792210
 H     3.031652     2.909894    -0.086005
 C     1.503242     3.973292     0.990747
 H     1.675995     4.909622     0.435637
 H     0.411159     3.901018     1.143930
 C     2.198870     4.016206     2.345682
 H     1.825580     4.860940     2.947381
 H     3.278514     4.197050     2.192877
 C     2.014522     2.704592     3.098333
 H     0.944618     2.575072     3.345355
 H     2.553085     2.730624     4.059737
 C     2.476922     1.503280     2.274991
 H     3.568366     1.560658     2.128588
 H     2.278410     0.582186     2.843442
