  86
scf done:    -2603.293623
 C    -1.144547    -0.367153    -3.808131
 H    -1.467625    -1.371022    -4.099883
 H    -1.942475     0.379863    -3.837923
 C     0.202443     0.017577    -4.022423
 H     0.901482    -0.694061    -4.473156
 H     0.436153     1.066659    -4.225278
 H    -0.538981     1.202799    -1.949257
Rh    -0.132312    -0.332907    -1.914000
 C    -1.988081     1.254024     0.554507
 C    -3.551624    -0.537769    -1.080234
 C    -1.969717    -1.573255     0.987570
 C     1.989311    -0.792189     0.827053
 C     3.374771     0.225646    -1.452377
 C     1.805207     1.979993     0.107360
 P     1.724202     0.290384    -0.628457
 P    -1.868446    -0.323646    -0.363381
 C     0.359736    -2.171475    -2.026478
 O     0.668934    -3.269846    -2.157408
 C    -2.369990     2.423588    -0.125468
 H    -2.703277     2.361790    -1.164807
 C    -1.547574     1.374699     1.871959
 H    -1.261929     0.481038     2.430391
 C    -2.306788     3.660634     0.490574
 H    -2.599169     4.572288    -0.034112
 C    -1.443494     2.620631     2.493481
 H    -1.065726     2.674879     3.514539
 C    -1.809892     3.774880     1.798017
 O    -1.706378     5.025702     2.286897
 C    -1.112183     5.206430     3.542177
 H    -0.082079     4.809191     3.563000
 H    -1.082983     6.288336     3.723945
 H    -1.696741     4.727465     4.347534
 C    -3.716995    -1.564612    -2.018058
 C    -4.665973     0.217823    -0.699286
 C    -6.074578    -1.070162    -2.183536
 C    -5.918874    -0.044580    -1.253675
 C    -4.969820    -1.834429    -2.560344
 H    -2.846625    -2.150912    -2.322180
 H    -5.083204    -2.641269    -3.288436
 H    -7.056763    -1.273943    -2.616823
 H    -6.779656     0.557477    -0.952045
 H    -4.558634     1.018764     0.035580
 C    -0.986016    -2.553729     1.114815
 C    -3.049601    -1.570948     1.883315
 C    -2.141134    -3.503252     3.011276
 C    -3.131283    -2.525176     2.891483
 C    -1.073049    -3.517573     2.120097
 H    -0.137592    -2.556852     0.430534
 H    -0.292317    -4.276014     2.207317
 H    -2.206947    -4.254886     3.801730
 H    -3.975922    -2.511744     3.584706
 H    -3.834124    -0.816312     1.787713
 C     1.533132    -0.447956     2.108120
 H     1.108896     0.542217     2.282785
 C     2.519411    -2.073085     0.642328
 H     2.876821    -2.378206    -0.344599
 C     1.604745    -1.347780     3.160436
 H     1.239526    -1.087377     4.155497
 C     2.600148    -2.986944     1.691672
 H     3.020120    -3.975070     1.502503
 C     2.134344    -2.628745     2.962182
 O     2.144248    -3.445492     4.034072
 C     2.655445    -4.740513     3.890628
 H     3.718510    -4.733172     3.591564
 H     2.566428    -5.225136     4.871112
 H     2.085045    -5.329049     3.149851
 C     3.431418     0.488424    -2.824230
 C     4.567239    -0.010511    -0.755746
 C     5.837693     0.285650    -2.790295
 C     5.789794     0.016016    -1.422512
 C     4.655923     0.523671    -3.489115
 H     2.497643     0.654312    -3.363546
 H     4.684216     0.731089    -4.561581
 H     6.797958     0.305279    -3.311506
 H     6.712464    -0.176121    -0.869201
 H     4.542193    -0.230980     0.313823
 C     0.957062     2.983900    -0.360501
 C     2.749092     2.296676     1.096286
 C     1.963062     4.580134     1.146914
 C     2.822567     3.584674     1.616612
 C     1.035054     4.277712     0.155150
 H     0.223388     2.734249    -1.129774
 H     0.354178     5.048247    -0.212425
 H     2.022311     5.593230     1.552872
 H     3.560229     3.815026     2.389362
 H     3.430175     1.529115     1.469620
