  90
scf done:    -2381.649011
 C    -0.737576     0.108388    -3.637339
 H    -1.211735    -0.766549    -4.094617
 H    -1.333815     1.023075    -3.703909
 C     0.680138     0.189557    -3.612351
 H     1.266961    -0.624292    -4.049827
 H     1.176514     1.163145    -3.653629
 H    -0.142076     1.345771    -1.552921
Rh    -0.026641    -0.232243    -1.631359
 C    -2.376341     1.414568     0.492524
 C    -3.326298    -1.091272    -0.592115
 C    -1.344925    -1.142475     1.454877
 C     2.351187    -0.955420     1.058886
 C     3.310994     0.742477    -1.045512
 C     1.380353     1.774042     0.809544
 P     1.745103     0.280149    -0.202689
 P    -1.773374    -0.246188    -0.091227
 C     0.020632    -2.121618    -1.887788
 O    -0.018625    -3.246644    -2.119909
 H    -1.489810     1.840638     1.000024
 C    -3.557679     1.384605     1.463029
 H    -3.365645     0.715421     2.315013
 H    -4.435651     0.970311     0.938626
 C    -3.886144     2.790785     1.958370
 H    -4.738936     2.753985     2.655828
 H    -3.026917     3.181940     2.533609
 C    -4.186680     3.730232     0.796606
 H    -4.378493     4.751364     1.164898
 H    -5.116111     3.398829     0.299029
 C    -3.049420     3.733280    -0.218365
 H    -2.150407     4.179873     0.242694
 H    -3.305828     4.367306    -1.082741
 C    -2.704025     2.325383    -0.692236
 H    -3.558870     1.898594    -1.248247
 H    -1.852653     2.346745    -1.388539
 C    -3.673562    -1.081029    -1.947489
 C    -4.190506    -1.700885     0.327692
 C    -5.723873    -2.258414    -1.455121
 C    -5.379766    -2.283918    -0.103384
 C    -4.869635    -1.654612    -2.375909
 H    -2.980872    -0.630317    -2.661336
 H    -5.128659    -1.639482    -3.437313
 H    -6.656868    -2.717565    -1.791050
 H    -6.042719    -2.762254     0.621837
 H    -3.927204    -1.727763     1.387527
 C    -1.148045    -2.530497     1.374432
 C    -1.090102    -0.503356     2.673253
 C    -0.452723    -2.604639     3.687803
 C    -0.642189    -1.228561     3.779169
 C    -0.714024    -3.254632     2.479440
 H    -1.336890    -3.050313     0.431594
 H    -0.570981    -4.334511     2.395019
 H    -0.104055    -3.171926     4.553890
 H    -0.444832    -0.708841     4.720273
 H    -1.224975     0.574101     2.767156
 H     1.510838    -1.029489     1.773786
 C     3.622626    -0.540865     1.802034
 H     3.519763     0.460916     2.246061
 H     4.448404    -0.467480     1.074070
 C     3.990500    -1.563253     2.873468
 H     4.908059    -1.246175     3.395573
 H     3.191013    -1.596886     3.636317
 C     4.170848    -2.950216     2.268802
 H     4.401160    -3.688734     3.054014
 H     5.042553    -2.934850     1.589742
 C     2.931879    -3.371775     1.488631
 H     2.088556    -3.500298     2.189425
 H     3.091211    -4.350535     1.007641
 C     2.535660    -2.339533     0.437370
 H     3.316797    -2.287666    -0.342628
 H     1.609867    -2.653058    -0.062683
 C     3.704594    -0.023650    -2.149771
 C     4.147401     1.775342    -0.604298
 C     5.741057     1.259082    -2.347114
 C     5.351485     2.035154    -1.256259
 C     4.916419     0.225700    -2.790043
 H     3.037668    -0.809232    -2.512307
 H     5.211147    -0.382272    -3.648798
 H     6.685824     1.464073    -2.856442
 H     5.991804     2.848565    -0.906015
 H     3.855931     2.382553     0.255614
 C     1.145266     2.983868     0.136550
 C     1.216509     1.745337     2.198295
 C     0.572901     4.077038     2.213921
 C     0.806926     2.885451     2.893665
 C     0.754669     4.123995     0.829808
 H     1.256241     3.022187    -0.949913
 H     0.578921     5.054400     0.284560
 H     0.252526     4.968626     2.757995
 H     0.674435     2.836523     3.977451
 H     1.389521     0.824230     2.754384
