  62
scf done:    -2137.686705
 C    -0.376116    -3.919675     0.713144
 H     0.164726    -4.219926     1.614974
 H    -1.463341    -3.972765     0.808358
 C     0.230772    -4.064354    -0.558791
 H     1.237531    -4.486993    -0.633923
 H    -0.395277    -4.238597    -1.438016
 H    -1.193389    -1.976822    -0.689203
Rh     0.226904    -1.969212     0.027534
 C    -2.281955     0.362971     0.770394
 O    -1.499007    -1.315769     2.742823
 O    -0.091480     0.740451     2.101255
 C     1.938916     0.885322    -1.010302
 O     1.711141    -0.924200    -2.874490
 O    -0.335016     0.520981    -2.177427
 P     0.840655    -0.444095    -1.561803
 P    -0.859384    -0.558477     1.429148
 C     1.954607    -2.109454     0.839296
 O     2.990398    -2.247162     1.311548
 C    -3.413066    -0.358992     0.357635
 H    -3.433212    -1.446037     0.476609
 C    -2.270419     1.745829     0.597865
 H    -1.398357     2.313382     0.926804
 C    -4.500405     0.286838    -0.205463
 H    -5.387986    -0.261749    -0.526010
 C    -3.352781     2.407824     0.016397
 H    -3.309034     3.489672    -0.111241
 C    -4.476647     1.679114    -0.388594
 O    -5.569397     2.220582    -0.957923
 C    -5.603069     3.603275    -1.178255
 H    -4.793320     3.930765    -1.853963
 H    -6.569247     3.823274    -1.649467
 H    -5.528821     4.171465    -0.234343
 C    -2.254265    -0.602154     3.700490
 H    -1.701020     0.273456     4.075920
 H    -3.213168    -0.256920     3.279180
 H    -2.454882    -1.288837     4.534174
 C     1.246717     0.631938     2.535659
 H     1.379814    -0.205979     3.239679
 H     1.934621     0.504605     1.685574
 H     1.495535     1.570548     3.049044
 C     1.440660     2.145031    -0.651274
 H     0.385442     2.366363    -0.817474
 C     3.294300     0.616636    -0.812791
 H     3.701061    -0.356383    -1.098740
 C     2.275950     3.101306    -0.095324
 H     1.902991     4.087117     0.189014
 C     4.144271     1.570111    -0.255409
 H     5.197940     1.328273    -0.115864
 C     3.633951     2.821082     0.113840
 O     4.366528     3.805756     0.668708
 C     5.729828     3.586158     0.900375
 H     6.279156     3.386520    -0.036533
 H     6.124113     4.504690     1.353148
 H     5.898333     2.744918     1.595836
 C     1.518922    -2.200428    -3.442036
 H     1.216047    -2.930414    -2.673606
 H     0.748343    -2.167873    -4.230825
 H     2.469919    -2.516376    -3.894141
 C    -1.565581     0.033428    -2.655258
 H    -1.503084    -0.172084    -3.737001
 H    -1.866970    -0.885813    -2.125997
 H    -2.327081     0.805728    -2.476707
