 102
scf done:    -2538.747979
 C     0.195978    -2.877924    -0.802737
 H    -0.617651    -3.173161    -1.468108
 H     1.193366    -3.099139    -1.193521
 C    -0.008663    -2.757770     0.575807
 H    -0.990313    -2.973346     1.007094
 H     0.817523    -2.896828     1.277634
 H    -0.002728    -0.115961     1.183044
Rh     0.005290    -0.717530    -0.316383
 C     3.123929    -1.005438     1.322040
 C     3.358347    -0.156750    -1.429543
 C     2.173922     1.739927     0.438399
 C    -2.368106     1.626632     0.549445
 C    -3.237330    -0.441737    -1.486901
 C    -3.150500    -0.949510     1.423446
 P    -2.226430    -0.168166     0.020312
 P     2.197552    -0.049521     0.014069
 C    -0.056923     0.119360    -2.002747
 O    -0.103736     0.703391    -2.996630
 H     2.365671    -1.124229     2.115045
 C     4.386640    -0.397953     1.930132
 H     4.223530     0.638302     2.262405
 H     5.170708    -0.359436     1.157577
 C     4.882834    -1.261453     3.087722
 H     5.787388    -0.814171     3.531119
 H     4.118206    -1.272867     3.886013
 C     5.165521    -2.688681     2.630817
 H     5.467713    -3.315210     3.485664
 H     6.024547    -2.676048     1.935898
 C     3.963056    -3.299053     1.919174
 H     3.144292    -3.454292     2.645075
 H     4.216894    -4.295411     1.522801
 C     3.462298    -2.403334     0.790298
 H     4.243046    -2.309055     0.016231
 H     2.594808    -2.861311     0.297087
 C     2.946864    -1.059965    -2.422235
 H     1.967669    -1.530630    -2.313878
 C     4.610509     0.488715    -1.570288
 C     5.171954     1.535007    -0.645490
 H     6.232861     1.329694    -0.435988
 H     4.639703     1.618060     0.303952
 H     5.119914     2.526142    -1.124120
 C     3.738248    -1.356926    -3.525617
 H     3.383203    -2.066026    -4.276619
 C     5.390255     0.173663    -2.693286
 H     6.358099     0.670931    -2.806466
 C     4.976085    -0.735963    -3.659026
 H     5.617789    -0.951744    -4.516857
 C     2.272402     2.622078    -0.650390
 H     2.413959     2.214277    -1.654278
 C     1.913644     2.265819     1.724639
 C     1.620630     1.415320     2.924864
 H     2.502704     0.872613     3.293347
 H     0.852739     0.662730     2.676384
 H     1.244519     2.033461     3.751367
 C     2.198968     3.998980    -0.483359
 H     2.284815     4.656853    -1.351229
 C     1.862551     3.659751     1.869576
 H     1.675547     4.069662     2.866065
 C     2.017076     4.525575     0.793159
 H     1.967512     5.605833     0.947888
 H    -1.905172     1.524791     1.550358
 C    -3.782340     2.169959     0.759085
 H    -4.353718     1.491364     1.408232
 H    -4.317520     2.219139    -0.204379
 C    -3.757461     3.563533     1.382759
 H    -4.787809     3.941707     1.484896
 H    -3.349766     3.491075     2.407393
 C    -2.902410     4.528736     0.573665
 H    -2.883168     5.521637     1.052091
 H    -3.358145     4.672372    -0.423421
 C    -1.490230     3.984038     0.411322
 H    -1.006755     3.923048     1.402191
 H    -0.868075     4.668812    -0.185916
 C    -1.479672     2.599959    -0.227879
 H    -1.811256     2.686450    -1.276050
 H    -0.457056     2.199222    -0.260447
 C    -3.547908     0.635846    -2.326185
 H    -3.261449     1.646261    -2.038041
 C    -3.580895    -1.751307    -1.892014
 C    -3.293050    -2.961813    -1.053761
 H    -4.111416    -3.166757    -0.344492
 H    -2.384533    -2.836181    -0.454562
 H    -3.170854    -3.853275    -1.684727
 C    -4.208876     0.447320    -3.536129
 H    -4.435326     1.306927    -4.170867
 C    -4.245591    -1.917906    -3.111673
 H    -4.513127    -2.930809    -3.425923
 C    -4.565078    -0.838479    -3.930435
 H    -5.080429    -1.004903    -4.879299
 C    -2.339277    -1.312573     2.509691
 H    -1.260972    -1.161263     2.414961
 C    -4.552392    -1.129442     1.522672
 C    -5.559234    -0.767856     0.463967
 H    -5.673081    -1.571205    -0.280355
 H    -5.293880     0.133663    -0.096189
 H    -6.543484    -0.608340     0.926575
 C    -2.866879    -1.858294     3.674548
 H    -2.204011    -2.127924     4.499942
 C    -5.056612    -1.694688     2.704111
 H    -6.137604    -1.838108     2.786894
 C    -4.239804    -2.061148     3.767734
 H    -4.679287    -2.495859     4.668817
