  98
scf done:    -3157.206132
 C    -0.036858    -3.330752    -2.872008
 H     0.401666    -3.203552    -3.866846
 H     0.498096    -4.040227    -2.234371
 C    -1.433144    -3.149700    -2.693675
 H    -2.057579    -2.881165    -3.551612
 H    -1.952908    -3.712146    -1.912924
 H    -0.308130    -2.383803    -0.570593
Rh    -0.385875    -1.461051    -1.858626
 C     1.679383    -0.787316     0.857485
 C     3.046089    -1.781509    -1.534179
 C     2.148770     1.011850    -1.439889
 C    -1.838843     1.457614    -0.405003
 C    -3.707036    -0.393943    -1.471936
 C    -2.370481    -0.949927     1.064947
 P    -2.017210    -0.353853    -0.658332
 P     1.606407    -0.727998    -0.968465
 C    -0.373161    -0.420902    -3.456571
 O    -0.322807     0.201740    -4.423595
 C     2.183890    -1.896756     1.551726
 H     2.596756    -2.747070     1.006503
 C     1.078973     0.226374     1.610678
 H     0.631915     1.087507     1.113284
 C     2.142110    -1.964166     2.937068
 H     2.538905    -2.827229     3.474997
 C     1.025875     0.174585     3.002450
 H     0.560243     0.999239     3.542543
 C     1.573944    -0.920495     3.680714
 O     1.586303    -1.061592     5.018424
 C     1.018053    -0.053436     5.808040
 H    -0.058895     0.072684     5.598541
 H     1.141380    -0.365107     6.852718
 H     1.524983     0.916433     5.661716
 H     2.864321    -2.778527    -1.105886
 H     2.855231    -1.891918    -2.612012
 C     4.442366    -1.297626    -1.292160
 C     5.098797    -0.536068    -2.270552
 H     4.603624    -0.350009    -3.227521
 C     5.130796    -1.554087    -0.097603
 H     4.660529    -2.150800     0.684068
 C     6.373670    -0.016963    -2.061504
 H     6.881139     0.579055    -2.821888
 C     6.408687    -1.049293     0.127285
 H     6.943728    -1.247497     1.057697
 C     7.013212    -0.276109    -0.856324
 F     8.232770     0.214410    -0.644220
 H     2.928569     0.868197    -2.203915
 H     1.280710     1.445822    -1.952375
 C     2.621727     1.957570    -0.375867
 C     1.828230     3.059099    -0.035826
 H     0.888078     3.220598    -0.565352
 C     3.817352     1.765340     0.326960
 H     4.456222     0.914425     0.090856
 C     2.191994     3.938069     0.981117
 H     1.560962     4.787815     1.249429
 C     4.200965     2.635530     1.342600
 H     5.130005     2.487025     1.895914
 C     3.379119     3.709619     1.663711
 F     3.739467     4.536564     2.646748
 C    -2.025663     2.112801     0.821783
 H    -2.288631     1.547559     1.717010
 C    -1.532554     2.244911    -1.519830
 H    -1.377023     1.770366    -2.491798
 C    -1.884571     3.488747     0.932029
 H    -2.013618     3.996415     1.889690
 C    -1.420755     3.631791    -1.433976
 H    -1.182086     4.202804    -2.331487
 C    -1.578140     4.263872    -0.193567
 O    -1.430793     5.585578     0.011599
 C    -1.089315     6.404750    -1.073901
 H    -1.859195     6.379917    -1.864666
 H    -1.014365     7.427340    -0.683908
 H    -0.117469     6.117016    -1.512002
 H    -3.526965    -0.011654    -2.488235
 H    -3.954786    -1.459969    -1.585210
 C    -4.786377     0.375976    -0.777373
 C    -5.648706    -0.236266     0.142256
 H    -5.577841    -1.311605     0.320070
 C    -4.934710     1.754645    -0.992237
 H    -4.283371     2.260243    -1.707872
 C    -6.612676     0.491821     0.836395
 H    -7.286469     0.013909     1.549663
 C    -5.890979     2.498246    -0.308971
 H    -6.005097     3.570894    -0.474843
 C    -6.717527     1.856578     0.605154
 F    -7.634115     2.563366     1.266023
 H    -1.588512    -0.499771     1.693475
 H    -3.341091    -0.537913     1.386130
 C    -2.315299    -2.439988     1.220218
 C    -3.316485    -3.283928     0.726564
 H    -4.192244    -2.861837     0.231092
 C    -1.210098    -3.028618     1.845768
 H    -0.412177    -2.392209     2.231851
 C    -3.220454    -4.668692     0.841568
 H    -3.997524    -5.330297     0.454889
 C    -1.096366    -4.409193     1.972703
 H    -0.232792    -4.866874     2.458539
 C    -2.105198    -5.215816     1.462677
 F    -2.005362    -6.540370     1.575858
