  90
scf done:    -2852.637551
 C     0.832241    -4.195153     1.263475
 H     1.426239    -4.819079     0.588298
 H     1.305324    -4.012038     2.232589
 C    -0.585141    -4.212904     1.170065
 H    -1.067084    -4.853375     0.424220
 H    -1.184520    -4.046744     2.069895
 H     0.028187    -1.856569     1.841649
Rh     0.161113    -2.368455     0.341599
 O     2.604481    -0.164956     1.407720
 C     3.622644    -2.168047     0.026221
 C     2.217500    -0.018246    -1.318449
 O    -1.410693     0.036857    -1.294272
 C    -3.148430    -2.058507    -0.464453
 C    -2.224493     0.039850     1.383993
 P    -1.641786    -1.019126    -0.039995
 P     2.091717    -1.135450     0.177574
 C     0.224462    -3.003651    -1.459157
 O     0.218930    -3.356669    -2.551332
 C     1.759030     0.310176     2.452731
 H     0.711461     0.224939     2.113327
 C     2.099788     1.764718     2.698598
 H     1.958748     2.357466     1.785004
 H     3.150419     1.865205     3.010507
 H     1.461345     2.179337     3.493464
 C     1.945103    -0.565006     3.675822
 H     1.681561    -1.606474     3.440991
 H     2.992817    -0.530591     4.013614
 H     1.303853    -0.224056     4.502876
 H     3.637894    -2.775954     0.944019
 H     3.430834    -2.860008    -0.808867
 C     4.897205    -1.408047    -0.169137
 C     5.485756    -1.303774    -1.436103
 H     5.040023    -1.833880    -2.282408
 C     5.507644    -0.736073     0.899726
 H     5.057971    -0.795518     1.891498
 C     6.635245    -0.543483    -1.644560
 H     7.097247    -0.460527    -2.629790
 C     6.656309     0.024891     0.710453
 H     7.135206     0.552311     1.537423
 C     7.205047     0.116447    -0.564085
 F     8.304953     0.845459    -0.749655
 H     3.066602    -0.360670    -1.928452
 H     1.290959    -0.189786    -1.882981
 C     2.364835     1.434750    -0.992423
 C     1.232123     2.248224    -0.881302
 H     0.245511     1.805892    -1.031278
 C     3.623672     2.006946    -0.769368
 H     4.518851     1.384657    -0.834031
 C     1.345961     3.604716    -0.581478
 H     0.467302     4.248103    -0.511611
 C     3.753106     3.357796    -0.461898
 H     4.730375     3.812581    -0.290144
 C     2.609107     4.143444    -0.376403
 F     2.727793     5.441366    -0.090793
 C    -2.399757     0.577653    -2.179249
 H    -3.385250     0.516771    -1.692552
 C    -2.398707    -0.231174    -3.463769
 H    -2.610070    -1.294315    -3.281219
 H    -1.411336    -0.167835    -3.945744
 H    -3.151718     0.154042    -4.168071
 C    -2.083998     2.036568    -2.431758
 H    -2.076884     2.604475    -1.492759
 H    -1.102805     2.144389    -2.918225
 H    -2.844971     2.476475    -3.093417
 H    -2.964054    -2.424357    -1.486122
 H    -2.978591    -2.926428     0.190543
 C    -4.552149    -1.562180    -0.292458
 C    -5.173527    -1.634487     0.963155
 H    -4.641004    -2.091658     1.801465
 C    -5.297598    -1.036569    -1.356975
 H    -4.865920    -1.013681    -2.359560
 C    -6.462650    -1.150412     1.170577
 H    -6.943545    -1.202785     2.148841
 C    -6.587793    -0.548321    -1.170982
 H    -7.168067    -0.137504    -1.999102
 C    -7.151934    -0.598238     0.098351
 F    -8.382979    -0.128681     0.284221
 H    -3.037291    -0.515813     1.874080
 H    -1.377832     0.036336     2.082276
 C    -2.638576     1.449776     1.090422
 C    -1.713555     2.491790     1.234915
 H    -0.691688     2.267496     1.549969
 C    -3.942179     1.774181     0.691501
 H    -4.688366     0.984891     0.585681
 C    -2.069256     3.816381     0.991456
 H    -1.355998     4.632649     1.119034
 C    -4.311681     3.091322     0.434142
 H    -5.326740     3.347993     0.125917
 C    -3.367894     4.099868     0.588066
 F    -3.717604     5.362919     0.351629
