  90
scf done:    -2230.328614
 C    -0.873359    -3.322989    -0.965057
 H    -1.253358    -3.961754    -0.161643
 H    -1.613084    -3.071127    -1.728687
 C     0.503998    -3.335142    -1.278603
 H     1.189941    -3.976219    -0.717036
 H     0.827229    -3.117634    -2.299657
 H    -0.273917    -0.913877    -1.657323
Rh     0.014680    -1.502135    -0.200819
 C    -1.819162     1.530815    -0.365156
 O    -3.052022    -0.880495    -0.937606
 O    -2.670690    -0.108365     1.488579
 C     1.758558     1.497565     0.499340
 O     3.088138    -0.950421     0.635204
 O     2.586896     0.239413    -1.622707
 P     1.883543    -0.205527    -0.200796
 P    -1.881958    -0.272075     0.042729
 C     0.423523    -2.271419     1.495637
 O     0.715039    -2.779916     2.481926
 H    -1.024805     1.866196     0.327819
 C    -3.062274     2.359646    -0.038815
 H    -3.375864     2.169266     0.997638
 H    -3.897661     2.053479    -0.689513
 C    -2.789998     3.844602    -0.262891
 H    -3.694367     4.432937    -0.037234
 H    -2.014803     4.182002     0.449614
 C    -2.317907     4.116544    -1.686710
 H    -2.101126     5.188311    -1.824905
 H    -3.135234     3.872061    -2.389698
 C    -1.094019     3.276548    -2.033287
 H    -0.241310     3.606141    -1.411033
 H    -0.792536     3.443899    -3.080203
 C    -1.336213     1.790071    -1.791387
 H    -2.092440     1.410235    -2.500498
 H    -0.418992     1.214391    -1.989786
 C    -4.460479    -0.669076    -0.832555
 H    -4.661994     0.040788    -0.013425
 C    -5.111464    -1.997328    -0.497831
 H    -4.728988    -2.385169     0.455347
 H    -4.888761    -2.736368    -1.282651
 H    -6.203917    -1.889149    -0.418383
 C    -4.958780    -0.102345    -2.147839
 H    -4.473611     0.856646    -2.379209
 H    -4.735273    -0.801889    -2.967619
 H    -6.046746     0.060219    -2.115180
 C    -2.306813    -0.819786     2.668591
 H    -1.204939    -0.864801     2.714866
 C    -2.851720    -2.233185     2.640770
 H    -2.495511    -2.762321     1.744562
 H    -3.952651    -2.222977     2.631287
 H    -2.516140    -2.794314     3.525532
 C    -2.809286    -0.004008     3.841034
 H    -2.376601     1.006934     3.819123
 H    -3.905655     0.088971     3.803708
 H    -2.532137    -0.482755     4.791826
 H     0.931760     1.892386    -0.120676
 C     2.934750     2.454848     0.310795
 H     3.236035     2.467761    -0.746772
 H     3.805075     2.106059     0.889763
 C     2.560239     3.854493     0.791687
 H     3.416249     4.538249     0.671116
 H     1.752194     4.253057     0.150986
 C     2.090823     3.839195     2.242714
 H     1.804405     4.852943     2.566691
 H     2.933054     3.533474     2.890233
 C     0.930442     2.870066     2.442929
 H     0.049452     3.242158     1.887912
 H     0.633315     2.835057     3.503687
 C     1.272303     1.468668     1.947569
 H     2.054675     1.025484     2.587392
 H     0.397710     0.802517     2.029877
 C     4.470786    -0.588511     0.670753
 H     4.640656     0.254551    -0.020064
 C     5.277635    -1.781363     0.195593
 H     5.003964    -2.052875    -0.831859
 H     5.084908    -2.649320     0.844387
 H     6.354803    -1.557260     0.221803
 C     4.837297    -0.187711     2.086905
 H     4.255942     0.681591     2.424111
 H     4.633262    -1.021055     2.776222
 H     5.905714     0.067325     2.154393
 C     2.347877    -0.418492    -2.867657
 H     1.319867    -0.822217    -2.839323
 C     3.320032    -1.564392    -3.055920
 H     3.197627    -2.305536    -2.253030
 H     4.358955    -1.199003    -3.046001
 H     3.139641    -2.069536    -4.016781
 C     2.445321     0.639328    -3.946393
 H     1.718708     1.444159    -3.761559
 H     3.453214     1.082528    -3.965521
 H     2.238129     0.203890    -4.935219
