  90
scf done:    -2531.543623
 C     0.715238     0.812814     3.481331
 H     1.158502     0.024932     4.098394
 H     1.348717     1.695658     3.359371
 C    -0.693388     0.927174     3.410420
 H    -1.324274     0.233347     3.973789
 H    -1.154887     1.904083     3.241767
 H     0.210185     1.616854     1.150895
Rh     0.052975     0.086336     1.561632
 C     1.764728     0.710241    -1.460964
 C     3.403071     0.809168     0.884990
 C     2.588422    -1.704580    -0.185016
 C    -1.766858    -1.258083    -1.141501
 C    -3.423164    -0.310046     0.964473
 C    -2.205928     1.572525    -0.791339
 P    -1.804557     0.046051     0.153984
 P     1.921902    -0.039153     0.211022
 C    -0.007512    -1.739124     2.109785
 O    -0.013609    -2.834996     2.451613
 C     2.265726     0.089465    -2.611558
 C     1.065858     1.917251    -1.590188
 C     1.331740     1.846390    -3.988085
 C     0.849527     2.482600    -2.843832
 C     2.046363     0.654910    -3.867461
 H     2.811168    -0.852666    -2.527787
 H     2.431865     0.154519    -4.759380
 H     1.148537     2.278532    -4.974874
 H     0.278595     3.410666    -2.923854
 H     0.659994     2.395982    -0.697283
 C     3.806833     0.479714     2.185712
 H     3.228898    -0.247140     2.760827
 C     4.137813     1.746957     0.157516
 H     3.831001     2.000548    -0.860431
 C     4.937438     1.075873     2.731311
 H     5.257957     0.810510     3.741759
 C     5.268077     2.370641     0.703915
 C     6.018632     3.404824    -0.084510
 H     7.036233     3.550754     0.304992
 H     6.093483     3.124698    -1.145820
 H     5.505270     4.379929    -0.042775
 C     5.660317     2.017637     1.997672
 H     6.544272     2.487023     2.438445
 C     3.960600    -1.979748    -0.216535
 H     4.683428    -1.193602     0.010703
 C     1.677009    -2.724430    -0.476848
 H     0.605527    -2.508438    -0.451839
 C     4.398903    -3.264239    -0.529859
 H     5.469626    -3.482759    -0.544942
 C     2.104821    -4.017312    -0.795359
 C     1.107000    -5.092543    -1.109493
 H     0.220470    -5.010511    -0.464058
 H     0.751827    -5.005580    -2.149035
 H     1.540742    -6.094790    -0.983414
 C     3.480698    -4.272780    -0.813716
 H     3.836186    -5.280732    -1.045645
 C    -2.391681    -2.494193    -0.932287
 C    -0.993775    -1.078515    -2.297899
 C    -1.490110    -3.332784    -3.014120
 C    -0.860985    -2.106507    -3.227285
 C    -2.251369    -3.523561    -1.862091
 H    -2.997487    -2.653012    -0.037250
 H    -2.747044    -4.481164    -1.684605
 H    -1.387135    -4.138846    -3.744687
 H    -0.254661    -1.943158    -4.121420
 H    -0.490776    -0.127670    -2.478134
 C    -3.442949    -0.987989     2.185190
 H    -2.500926    -1.251142     2.667908
 C    -4.637277     0.043954     0.362688
 H    -4.632170     0.582598    -0.587967
 C    -4.660263    -1.319246     2.779767
 H    -4.669957    -1.855519     3.731806
 C    -5.864095    -0.269114     0.952225
 C    -7.157571     0.138180     0.307750
 H    -7.657562     0.929425     0.889957
 H    -6.996018     0.524236    -0.708356
 H    -7.858523    -0.708436     0.244333
 C    -5.858319    -0.962171     2.170492
 H    -6.808490    -1.219576     2.647450
 C    -2.741565     1.562789    -2.084456
 H    -2.922977     0.617946    -2.599755
 C    -1.993161     2.798219    -0.153885
 H    -1.558792     2.796916     0.850020
 C    -3.029120     2.766214    -2.724542
 H    -3.432126     2.755573    -3.740305
 C    -2.288184     4.013750    -0.778791
 C    -2.067897     5.312670    -0.059111
 H    -2.907766     5.531562     0.620980
 H    -1.155289     5.281345     0.554218
 H    -1.983426     6.155128    -0.760323
 C    -2.800971     3.980362    -2.081018
 H    -3.023411     4.919226    -2.596038
