  86
scf done:    -1929.532330
 C     1.245437     0.008531     3.166142
 H     1.407568    -0.975319     3.618451
 H     2.165043     0.584746     3.028505
 C     0.018878     0.685590     3.395328
 H    -0.751617     0.214601     4.013905
 H     0.011680     1.777534     3.428745
 H     0.715996     1.368227     1.090842
Rh     0.068055    -0.056691     1.364218
 C     2.682005     0.525190    -0.951690
 C     2.869679    -2.041734     0.358781
 C     0.942273    -1.619290    -1.746886
 C    -2.662515    -0.222934    -0.993938
 C    -2.863563     2.026916     0.789934
 C    -0.898962     2.004552    -1.308601
 P    -1.584461     0.917215     0.029349
 P     1.607304    -0.812080    -0.216146
 C    -0.698873    -1.720388     1.871010
 O    -1.108516    -2.716084     2.277738
 H     1.940297     1.208854    -1.404371
 C     3.655724     0.088826    -2.048432
 H     3.130971    -0.445710    -2.854545
 H     4.390278    -0.619745    -1.626055
 C     4.398463     1.287483    -2.636327
 H     5.108631     0.947999    -3.407999
 H     3.670551     1.941117    -3.151004
 C     5.119522     2.091534    -1.561721
 H     5.611299     2.972456    -2.005414
 H     5.924899     1.472329    -1.126248
 C     4.159855     2.511820    -0.455193
 H     3.420708     3.224963    -0.862924
 H     4.699690     3.047645     0.342261
 C     3.421776     1.313229     0.131151
 H     4.152388     0.651569     0.631007
 H     2.707416     1.632038     0.904891
 H     3.341558    -2.502267    -0.526907
 H     3.655615    -1.456198     0.865073
 C     2.360019    -3.112040     1.314542
 H     1.534438    -3.676944     0.852626
 H     1.920859    -2.614348     2.191963
 C     3.454504    -4.072559     1.751912
 H     3.889375    -4.608845     0.892805
 H     4.276022    -3.537235     2.255062
 H     3.068903    -4.826480     2.454896
 H     0.403468    -0.824603    -2.293623
 H     1.778000    -1.932864    -2.394131
 C     0.009790    -2.798460    -1.504196
 H    -0.754142    -2.513931    -0.763098
 H     0.573940    -3.626894    -1.046065
 C    -0.658856    -3.288872    -2.779152
 H    -1.273369    -2.496623    -3.237562
 H     0.084551    -3.601936    -3.529590
 H    -1.318232    -4.148091    -2.583101
 H    -1.925004    -0.782068    -1.598053
 C    -3.647847     0.449695    -1.954175
 H    -3.132608     1.152862    -2.625036
 H    -4.376222     1.043957    -1.374561
 C    -4.401539    -0.581403    -2.792295
 H    -5.112972    -0.071490    -3.462327
 H    -3.681660    -1.106729    -3.446307
 C    -5.122921    -1.601563    -1.921093
 H    -5.624407    -2.357545    -2.546920
 H    -5.920246    -1.090953    -1.350878
 C    -4.157859    -2.264569    -0.947243
 H    -3.429456    -2.873388    -1.512241
 H    -4.693674    -2.961109    -0.282527
 C    -3.402245    -1.233098    -0.115508
 H    -4.121177    -0.696296     0.529767
 H    -2.702789    -1.737120     0.562779
 H    -3.245329     2.701877     0.003512
 H    -3.708430     1.379422     1.080193
 C    -2.404166     2.819944     2.004568
 H    -1.492684     3.390556     1.761337
 H    -2.100178     2.109261     2.786442
 C    -3.479125     3.758838     2.528512
 H    -3.768943     4.505564     1.771169
 H    -4.390416     3.205470     2.808193
 H    -3.136074     4.305341     3.420273
 H    -0.274266     1.347283    -1.938888
 H    -1.732493     2.344303    -1.943902
 C    -0.089644     3.213059    -0.860489
 H     0.681312     2.888747    -0.142931
 H    -0.742457     3.907326    -0.305572
 C     0.554623     3.946468    -2.027043
 H     1.246001     3.288073    -2.578485
 H    -0.198363     4.306285    -2.746635
 H     1.132131     4.818460    -1.683949
