  88
scf done:    -2305.501689
 C     0.362641    -3.669879    -1.745719
 H    -0.138012    -4.521043    -1.273524
 H    -0.114517    -3.326898    -2.668334
 C     1.760846    -3.498758    -1.578130
 H     2.324976    -4.220948    -0.979477
 H     2.344300    -3.025894    -2.373515
 H     0.760521    -1.145833    -1.699389
Rh     0.716560    -2.041716    -0.377771
 C    -1.749809     0.398280    -1.110234
 C    -2.716362    -2.277838    -0.646670
 C    -1.890797    -0.627231     1.629699
 C     3.095824    -0.929339     1.967993
 C     3.934133    -0.818213    -0.765961
 C     2.187193     1.210205     0.438193
 P     2.404954    -0.626852     0.292132
 P    -1.371576    -1.087116    -0.120637
 C     0.640688    -3.084479     1.212341
 O     0.585156    -3.684277     2.191870
 H    -1.060455     1.199898    -0.817325
 H    -1.554161     0.154174    -2.163681
 H    -2.781960     0.748611    -0.978898
 H    -2.506502    -2.463964    -1.711569
 H    -2.493280    -3.215997    -0.116917
 C    -4.129130    -1.845674    -0.421468
 C    -4.829711    -2.255561     0.720767
 H    -4.362513    -2.956309     1.418087
 C    -4.773263    -0.982443    -1.318481
 H    -4.251122    -0.680872    -2.230677
 C    -6.118375    -1.787021     0.967107
 H    -6.654147    -2.116202     1.860682
 C    -6.060517    -0.492376    -1.082549
 C    -6.699433     0.478269    -2.032832
 H    -6.543070     1.515876    -1.692682
 H    -6.272054     0.396332    -3.042271
 H    -7.785383     0.319407    -2.104461
 C    -6.726960    -0.903778     0.079197
 H    -7.737937    -0.538569     0.279977
 H    -2.674522    -1.339861     1.927150
 H    -1.013178    -0.825713     2.259319
 C    -2.366533     0.778819     1.827203
 C    -1.501718     1.760264     2.320431
 H    -0.481027     1.485475     2.600149
 C    -3.676840     1.150127     1.497099
 H    -4.366437     0.390532     1.122172
 C    -1.937850     3.075685     2.470919
 H    -1.256126     3.832719     2.867511
 C    -4.127277     2.464971     1.629803
 C    -5.527380     2.836189     1.233205
 H    -6.153239     1.942148     1.102029
 H    -6.002542     3.485066     1.984566
 H    -5.532195     3.389765     0.279182
 C    -3.238377     3.429390     2.123779
 H    -3.573457     4.463416     2.245385
 H     3.452590    -1.967796     2.025284
 H     3.921644    -0.244406     2.213038
 H     2.288622    -0.810030     2.705298
 H     4.196750    -1.881567    -0.654983
 H     3.603960    -0.694697    -1.807415
 C     5.091152     0.072229    -0.441470
 C     5.202641     1.346845    -1.013314
 H     4.454883     1.684974    -1.735551
 C     6.068657    -0.332231     0.476018
 H     5.998008    -1.330966     0.917920
 C     6.256649     2.185751    -0.661331
 H     6.331518     3.178851    -1.111168
 C     7.135938     0.495616     0.838325
 C     8.187902     0.016308     1.796625
 H     7.782766    -0.717913     2.508004
 H     9.016633    -0.473153     1.258010
 H     8.619625     0.848833     2.370961
 C     7.213930     1.767626     0.260037
 H     8.036767     2.434438     0.532089
 H     1.651430     1.348861     1.390514
 H     3.192577     1.644903     0.586291
 C     1.456516     1.948395    -0.646463
 C     1.568569     1.615241    -2.002077
 H     2.179083     0.767056    -2.311545
 C     0.635763     3.025907    -0.297765
 H     0.532566     3.291084     0.757689
 C     0.872076     2.340369    -2.964570
 H     0.962963     2.064524    -4.018001
 C    -0.082176     3.759461    -1.248818
 C    -0.994021     4.869779    -0.815732
 H    -0.469026     5.591799    -0.171076
 H    -1.402033     5.416606    -1.677298
 H    -1.838831     4.471439    -0.230320
 C     0.049163     3.401786    -2.593905
 H    -0.504090     3.956676    -3.356417
