  60
scf done:    -1539.110519
 C    -0.610814    -2.990119    -0.564713
 H    -1.469135    -3.383322    -0.010494
 H    -0.724258    -3.038788    -1.651629
 C     0.686536    -3.071529     0.008416
 H     0.811134    -3.522521     0.997940
 H     1.557852    -3.186801    -0.643135
 H     0.647442    -0.904535    -1.372702
Rh     0.003239    -1.030975     0.090867
 C    -1.121097     1.311751    -2.312441
 C    -3.163880    -0.361199    -1.277891
 C    -2.104085     1.787921     0.354559
 C     2.001508     0.722099     2.416442
 C     3.474811    -0.651705     0.409574
 C     2.087631     1.800829    -0.249679
 P     1.859686     0.206907     0.658788
 P    -1.570113     0.420950    -0.772389
 C    -0.741798    -1.139704     1.832909
 O    -1.184027    -1.161154     2.894868
 H    -0.238720     1.939153    -2.125020
 H    -0.847758     0.564669    -3.070705
 H    -1.941112     1.937373    -2.695928
 H    -3.804422     0.382426    -1.784262
 H    -2.885281    -1.114490    -2.034431
 C    -3.907504    -1.030295    -0.130974
 H    -4.204458    -0.270989     0.613507
 H    -3.212106    -1.709127     0.389158
 C    -5.136977    -1.798742    -0.589545
 H    -5.859011    -1.139516    -1.098060
 H    -4.862978    -2.596933    -1.297809
 H    -5.656012    -2.270097     0.258881
 H    -2.365705     1.302076     1.310179
 H    -1.185566     2.363428     0.566387
 C    -3.224572     2.713265    -0.098624
 H    -4.138200     2.123901    -0.284515
 H    -2.961877     3.176305    -1.064723
 C    -3.527502     3.804076     0.918414
 H    -3.826363     3.372629     1.887049
 H    -2.643869     4.436896     1.099639
 H    -4.343646     4.459801     0.578603
 H     1.953717    -0.177422     3.047106
 H     2.935311     1.262200     2.633855
 H     1.141773     1.357848     2.674762
 H     4.286948    -0.057756     0.865115
 H     3.394902    -1.585943     0.990928
 C     3.787678    -0.970891    -1.045613
 H     3.929187    -0.031227    -1.607735
 H     2.908994    -1.460433    -1.496615
 C     5.018949    -1.848649    -1.206699
 H     5.914881    -1.371816    -0.777096
 H     4.884021    -2.816280    -0.697373
 H     5.228423    -2.057314    -2.266938
 H     2.007503     1.540728    -1.318620
 H     1.187772     2.399060    -0.022196
 C     3.347634     2.614338     0.010675
 H     4.236972     2.006689    -0.226471
 H     3.423956     2.855643     1.084100
 C     3.386867     3.901838    -0.799834
 H     3.349361     3.692682    -1.880942
 H     2.528562     4.550161    -0.560650
 H     4.304305     4.477190    -0.602949
