  78
scf done:    -2572.784801
 C    -0.929606    -3.046905    -1.800984
 H    -1.376167    -3.836484    -1.188235
 H    -1.601337    -2.639411    -2.561008
 C     0.469368    -3.023924    -1.996487
 H     1.091432    -3.794608    -1.531614
 H     0.894891    -2.592392    -2.906281
 H    -0.221503    -0.578636    -1.950451
Rh    -0.073959    -1.446546    -0.615232
 C    -1.891787     1.505914     0.306726
 C    -3.370000    -0.397622    -1.195987
 C    -2.804381    -0.905816     1.550150
 C     2.750773    -0.208722     1.155108
 C     3.135695    -0.591595    -1.633411
 C     1.662724     1.671890    -0.699942
 P     1.821120    -0.142963    -0.431041
 P    -1.989540    -0.304547     0.016844
 C     0.178940    -2.535864     0.924854
 O     0.350033    -3.223605     1.826553
 C    -0.903533     1.981914     1.179318
 H    -0.230584     1.275359     1.668542
 C    -2.721849     2.430774    -0.334852
 H    -3.500756     2.084779    -1.016816
 C    -0.745612     3.340456     1.416956
 H     0.031159     3.718821     2.082623
 C    -2.560126     3.799587    -0.125266
 H    -3.189114     4.533170    -0.632853
 C    -1.569621     4.235042     0.743507
 F    -1.392698     5.542274     0.927819
 C    -3.078359    -0.298597    -2.562251
 C    -4.705337    -0.523441    -0.794719
 C    -5.428935    -0.439411    -3.100067
 C    -5.727216    -0.548496    -1.743142
 C    -4.101056    -0.310875    -3.507348
 H    -2.034210    -0.221449    -2.876600
 H    -3.857985    -0.230844    -4.569659
 H    -6.231091    -0.459866    -3.841735
 H    -6.764731    -0.652854    -1.416385
 H    -4.950089    -0.602029     0.266722
 C    -2.984704    -2.289297     1.686860
 C    -3.253355    -0.057878     2.567847
 C    -4.040373    -1.962297     3.833498
 C    -3.862170    -0.586728     3.706701
 C    -3.604725    -2.813189     2.816439
 H    -2.633884    -2.955401     0.894113
 H    -3.740500    -3.893359     2.908267
 H    -4.517682    -2.373992     4.725956
 H    -4.202660     0.085508     4.498125
 H    -3.129235     1.022676     2.471114
 C     4.148963    -0.132446     1.212243
 H     4.727671    -0.065059     0.288321
 C     2.035447    -0.305258     2.355134
 H     0.946975    -0.396095     2.327034
 C     4.816376    -0.144796     2.434172
 H     5.905099    -0.091762     2.491917
 C     2.686958    -0.309689     3.584391
 H     2.137109    -0.390162     4.523616
 C     4.074240    -0.229579     3.606257
 F     4.707401    -0.241788     4.776067
 C     3.601796    -1.913791    -1.625187
 C     3.666267     0.311697    -2.558591
 C     5.113389    -1.413610    -3.440693
 C     4.647046    -0.101928    -3.461981
 C     4.590577    -2.319123    -2.514912
 H     3.178986    -2.626349    -0.912438
 H     4.949963    -3.350778    -2.493411
 H     5.883083    -1.734324    -4.146774
 H     5.050590     0.611931    -4.184277
 H     3.314320     1.345293    -2.574858
 C     0.724224     2.138473    -1.628594
 C     2.445367     2.601379    -0.004767
 C     1.351663     4.422737    -1.157752
 C     2.288262     3.967929    -0.231910
 C     0.573449     3.502760    -1.859650
 H     0.095425     1.416629    -2.154206
 H    -0.171526     3.849530    -2.579314
 H     1.218096     5.494384    -1.322846
 H     2.899864     4.681896     0.325181
 H     3.177593     2.259505     0.729226
