  80
scf done:    -2449.155138
 C     0.576753    -3.247431    -2.008997
 H    -0.072549    -4.099111    -1.786051
 H     0.498702    -2.877473    -3.035230
 C     1.783195    -3.071136    -1.292847
 H     2.064027    -3.786826    -0.514846
 H     2.630183    -2.557807    -1.753891
 H     0.887431    -0.709690    -1.757215
Rh     0.322781    -1.629428    -0.585502
 C    -1.929618    -0.369204    -2.997507
 O    -3.058391    -1.294195    -0.857242
 O    -1.729861     0.929775    -0.630894
 C     0.674628     0.257467     2.390328
 O     2.899496    -0.263232     1.186658
 O     1.307717     1.421126     0.019743
 P     1.302573    -0.084813     0.724067
 P    -1.573922    -0.619723    -1.239622
 C    -0.230908    -2.785128     0.851485
 O    -0.467778    -3.482089     1.727681
 H    -1.147367     0.276298    -3.420083
 H    -1.886464    -1.350646    -3.489011
 H    -2.918906     0.084361    -3.147781
 C    -3.276957    -1.854982     0.370011
 C    -3.006559    -1.147159     1.542790
 H    -2.618656    -0.129185     1.468729
 C    -3.784187    -3.151938     0.424165
 H    -3.983898    -3.682434    -0.508154
 C    -3.218362    -1.736299     2.792735
 C    -2.858773    -0.996717     4.048130
 H    -2.960721     0.090809     3.920818
 H    -3.488009    -1.305655     4.895083
 H    -1.810907    -1.197309     4.328515
 C    -4.013358    -3.733693     1.667410
 H    -4.409651    -4.750430     1.721813
 C    -3.729075    -3.037885     2.840998
 H    -3.902371    -3.512910     3.809888
 C    -2.588871     1.884664    -1.109092
 C    -3.965371     1.769719    -0.923525
 H    -4.361276     0.884605    -0.421970
 C    -2.043166     2.998657    -1.749768
 H    -0.960640     3.058737    -1.876982
 C    -4.826849     2.774028    -1.382164
 C    -6.307917     2.645364    -1.172510
 H    -6.685941     1.692844    -1.575141
 H    -6.558583     2.662874    -0.099704
 H    -6.856857     3.463053    -1.659649
 C    -2.896993     3.999731    -2.201363
 H    -2.482236     4.877827    -2.702253
 C    -4.275872     3.889183    -2.022033
 H    -4.936240     4.681251    -2.384121
 H     0.661013    -0.690611     2.945994
 H     1.302867     0.989913     2.915489
 H    -0.352951     0.635732     2.302342
 C     3.853398    -0.723009     0.320561
 C     3.975560    -0.207386    -0.968769
 H     3.287134     0.572767    -1.300161
 C     4.716007    -1.722114     0.772201
 H     4.594226    -2.107924     1.785607
 C     4.954306    -0.701172    -1.839486
 C     5.048909    -0.162860    -3.237689
 H     5.148263     0.933756    -3.238036
 H     5.909917    -0.583518    -3.775341
 H     4.140379    -0.404039    -3.812902
 C     5.697553    -2.204523    -0.086101
 H     6.376378    -2.989105     0.256824
 C     5.814334    -1.704611    -1.383599
 H     6.583732    -2.099178    -2.051994
 C     1.554165     2.582872     0.705966
 C     2.854633     2.931542     1.063951
 H     3.673501     2.253650     0.814854
 C     0.478277     3.419141     1.007738
 H    -0.527786     3.116274     0.713432
 C     3.104238     4.133396     1.737622
 C     4.509985     4.511130     2.105417
 H     5.032500     3.676668     2.597378
 H     5.094867     4.773800     1.208828
 H     4.531143     5.375991     2.783015
 C     0.724548     4.615165     1.674304
 H    -0.108799     5.279689     1.915091
 C     2.023541     4.969206     2.038767
 H     2.202994     5.910066     2.565411
