  84
scf done:    -1853.368897
 C     0.428233    -2.892453    -2.444487
 H    -0.091966    -3.836640    -2.254429
 H     0.190795    -2.440948    -3.412255
 C     1.704838    -2.666429    -1.865625
 H     2.159575    -3.434379    -1.231983
 H     2.428206    -2.046289    -2.402246
 H     0.559005    -0.370036    -1.938286
Rh     0.215853    -1.484535    -0.834140
 C    -2.550723    -0.944857    -2.877279
 C    -3.276714    -1.283939    -0.146389
 C    -2.065272     1.191435    -1.010146
 C     0.448376     0.244462     2.251550
 C     2.961700    -0.534270     1.203104
 C     1.549046     1.673250    -0.003918
 P     1.275628    -0.037406     0.632349
 P    -1.897118    -0.639371    -1.191529
 C    -0.189223    -2.781711     0.489064
 O    -0.446249    -3.540054     1.315986
 H    -1.860804    -0.498683    -3.607789
 H    -2.565045    -2.030468    -3.049513
 H    -3.563265    -0.539975    -3.026513
 H    -3.269969    -2.378094    -0.290628
 H    -4.238377    -0.913495    -0.538280
 C    -3.104243    -0.951104     1.327971
 H    -2.065581    -1.174957     1.618910
 H    -3.234579     0.136422     1.483325
 C    -4.044735    -1.696607     2.276501
 H    -3.892139    -2.778122     2.101355
 C    -3.671131    -1.402151     3.724418
 H    -2.623723    -1.673104     3.929632
 H    -4.307968    -1.961338     4.427199
 H    -3.789818    -0.328818     3.950111
 C    -5.510991    -1.375192     2.011221
 H    -6.169503    -1.914603     2.709558
 H    -5.817123    -1.650394     0.990690
 H    -5.703577    -0.296137     2.139542
 H    -1.355282     1.617297    -1.739978
 H    -1.642897     1.418225    -0.018854
 C    -3.443071     1.814626    -1.163229
 H    -3.885000     1.513250    -2.127910
 H    -4.121311     1.423141    -0.383522
 C    -3.452171     3.345535    -1.086851
 H    -2.794577     3.719797    -1.894282
 C    -4.857047     3.879665    -1.340581
 H    -5.251271     3.533738    -2.308881
 H    -4.875355     4.980475    -1.343450
 H    -5.553317     3.537679    -0.556508
 C    -2.904752     3.864868     0.238764
 H    -2.961834     4.963230     0.286600
 H    -1.851596     3.585446     0.393933
 H    -3.486678     3.464882     1.086734
 H     0.286550    -0.731069     2.733532
 H     1.038320     0.880670     2.928306
 H    -0.536886     0.704254     2.087989
 H     2.840980    -1.547092     1.624361
 H     3.279096     0.124123     2.029108
 C     3.980561    -0.557069     0.073533
 H     3.518512    -1.052420    -0.795028
 H     4.207665     0.476896    -0.246074
 C     5.295534    -1.264437     0.406632
 H     5.041941    -2.295613     0.717757
 C     6.174071    -1.354973    -0.835545
 H     5.652245    -1.868286    -1.658062
 H     7.106722    -1.903573    -0.631363
 H     6.451538    -0.349050    -1.193257
 C     6.040628    -0.596005     1.556584
 H     6.988225    -1.113764     1.772242
 H     5.449812    -0.589777     2.485043
 H     6.283729     0.451149     1.307041
 H     0.553549     2.050234    -0.289644
 H     2.087809     1.530188    -0.953379
 C     2.259647     2.663895     0.904075
 H     1.715551     2.746262     1.860117
 H     3.267181     2.288885     1.159804
 C     2.402821     4.070641     0.313116
 H     1.386748     4.422541     0.049920
 C     2.974721     5.026799     1.353465
 H     2.352069     5.055617     2.261413
 H     3.046356     6.053084     0.961249
 H     3.988836     4.715213     1.655109
 C     3.247168     4.081986    -0.956397
 H     3.351026     5.103297    -1.354125
 H     2.810689     3.461508    -1.752984
 H     4.262016     3.699990    -0.752561
