  96
scf done:    -2610.097508
 C     1.044839    -1.240237    -3.108288
 H     1.559524    -0.558430    -3.790737
 H     1.686176    -2.017312    -2.681604
 C    -0.336629    -1.475484    -3.276305
 H    -0.867990    -0.958818    -4.082182
 H    -0.770066    -2.441578    -3.002291
 H     0.137087    -1.632833    -0.824035
Rh    -0.043062    -0.234109    -1.522567
 C     2.627705    -1.403821     0.223994
 C     3.281918     1.092065    -1.055126
 C     1.784082     1.153489     1.365172
 C    -2.554727     1.381593     0.347357
 C    -3.507763    -0.977105    -0.910874
 C    -1.692567    -1.242192     1.346872
 P    -1.957594    -0.269267    -0.200242
 P     1.877822     0.215110    -0.228155
 C    -0.444171     1.424608    -2.395241
 O    -0.761111     2.397810    -2.915234
 C     1.886719    -2.313126     0.995023
 H     0.895816    -2.040370     1.362251
 C     3.852502    -1.828193    -0.295681
 H     4.440137    -1.158702    -0.927204
 C     2.379978    -3.579822     1.273607
 H     1.778062    -4.259067     1.884368
 C     4.333683    -3.110871    -0.027876
 H     5.292452    -3.419239    -0.454038
 C     3.616516    -4.006325     0.767422
 C     4.137493    -5.380070     1.071060
 H     5.060214    -5.594539     0.514063
 H     4.359553    -5.491577     2.144916
 H     3.397316    -6.153861     0.813748
 C     3.086715     1.460003    -2.390604
 H     2.136904     1.199609    -2.858641
 C     4.497043     1.434933    -0.413166
 C     4.811119     1.133080     1.024518
 H     4.434726     0.153475     1.342717
 H     4.355587     1.881125     1.692574
 H     5.897882     1.154727     1.187987
 C     4.054363     2.152865    -3.111098
 H     3.868244     2.429027    -4.151342
 C     5.460231     2.126391    -1.160383
 H     6.403694     2.390012    -0.674274
 C     5.252429     2.487392    -2.488566
 H     6.029057     3.029700    -3.033538
 C     1.823007     0.491630     2.598546
 H     1.958053    -0.589242     2.628661
 C     1.623228     2.560636     1.346559
 C     1.543908     3.360614     0.079541
 H     0.954076     2.843965    -0.690351
 H     2.541335     3.540406    -0.350188
 H     1.073848     4.335610     0.268389
 C     1.713782     1.183610     3.800670
 H     1.748755     0.634935     4.744782
 C     1.526644     3.236461     2.569608
 H     1.410003     4.323913     2.553998
 C     1.568613     2.567474     3.789132
 H     1.486227     3.126546     4.724177
 C    -3.846792     1.853292     0.094176
 H    -4.578584     1.211759    -0.399987
 C    -1.641079     2.254951     0.950548
 H    -0.616685     1.925419     1.123309
 C    -4.212323     3.148801     0.457410
 H    -5.227845     3.494275     0.244353
 C    -2.016568     3.536905     1.328725
 H    -1.280336     4.183646     1.814791
 C    -3.311664     4.012824     1.085821
 C    -3.699872     5.412725     1.460056
 H    -3.356498     5.666729     2.474494
 H    -3.244848     6.144281     0.771906
 H    -4.789063     5.554484     1.421455
 C    -3.542709    -1.072422    -2.305539
 H    -2.657468    -0.755981    -2.859383
 C    -4.641020    -1.364584    -0.156474
 C    -4.730858    -1.263853     1.339680
 H    -4.288184    -0.334383     1.721161
 H    -4.199205    -2.091504     1.834404
 H    -5.781810    -1.300954     1.659182
 C    -4.658738    -1.564367    -2.976335
 H    -4.658060    -1.627380    -4.066835
 C    -5.748385    -1.866760    -0.852509
 H    -6.628497    -2.172096    -0.279614
 C    -5.765524    -1.975113    -2.240836
 H    -6.650623    -2.371588    -2.744519
 C    -1.463459    -0.584954     2.560837
 H    -1.523343     0.502595     2.608465
 C    -1.618710    -2.655600     1.300622
 C    -1.853039    -3.450655     0.050191
 H    -1.379274    -2.973475    -0.819856
 H    -2.927310    -3.539507    -0.175808
 H    -1.442427    -4.464304     0.156408
 C    -1.160354    -1.289362     3.722826
 H    -0.978117    -0.744259     4.651703
 C    -1.321794    -3.341617     2.485018
 H    -1.266321    -4.433406     2.451901
 C    -1.090220    -2.678193     3.687198
 H    -0.854258    -3.246746     4.589880
