 100
scf done:    -2910.758032
 C     0.972368    -2.451670    -2.516371
 H     1.648108    -2.057076    -3.280913
 H     1.435925    -3.182918    -1.848656
 C    -0.421733    -2.493642    -2.769328
 H    -0.796882    -2.151845    -3.740274
 H    -1.042550    -3.256472    -2.294415
 H    -0.117619    -2.063893    -0.310678
Rh     0.029207    -0.899869    -1.379175
 C     1.418830    -0.465281     1.842757
 C     3.197462    -1.382031    -0.231971
 C     2.499395     1.404929    -0.073564
 C    -1.658715     1.736894     0.055879
 C    -3.431268     0.005716    -1.384707
 C    -2.506775    -0.812453     1.176267
 P    -1.896857    -0.029320    -0.376550
 P     1.759070    -0.276056     0.044664
 C     0.224550     0.384596    -2.774556
 O     0.366180     1.092265    -3.668577
 C     1.779688     0.496491     2.791937
 H     2.346323     1.377526     2.488412
 C     0.674273    -1.571522     2.276729
 H     0.349131    -2.313282     1.543722
 C     1.389493     0.363311     4.123619
 H     1.666628     1.140498     4.841777
 C     0.308182    -1.710801     3.609056
 H    -0.287811    -2.576399     3.909833
 C     0.645601    -0.737755     4.557491
 C     0.190107    -0.869935     5.980330
 H     0.523780    -1.822478     6.421325
 H     0.572466    -0.052369     6.607496
 H    -0.910586    -0.857037     6.038346
 C     3.582588    -2.376438     0.662941
 H     3.065259    -2.458666     1.621021
 C     3.883733    -1.271253    -1.458607
 O     3.469828    -0.280668    -2.271552
 C     4.025304    -0.138505    -3.545697
 H     5.100320     0.110326    -3.498620
 H     3.486165     0.687270    -4.026765
 H     3.895543    -1.053127    -4.150994
 C     4.622419    -3.257963     0.359240
 H     4.906886    -4.032456     1.074849
 C     4.926880    -2.147209    -1.766347
 H     5.458323    -2.062261    -2.714755
 C     5.291173    -3.139140    -0.854016
 H     6.107105    -3.821814    -1.103718
 C     1.791396     2.406812    -0.733951
 H     0.796067     2.177573    -1.116216
 C     3.782471     1.711605     0.431933
 O     4.416155     0.730843     1.098804
 C     5.741078     0.899628     1.508843
 H     6.403275     1.138921     0.658676
 H     6.052670    -0.058464     1.943787
 H     5.839140     1.691348     2.272883
 C     2.321468     3.684608    -0.911084
 H     1.738400     4.445789    -1.432775
 C     4.326110     2.987022     0.246527
 H     5.319524     3.223883     0.628514
 C     3.592654     3.965949    -0.424697
 H     4.029578     4.958402    -0.562560
 C    -2.087875     2.745581    -0.811911
 H    -2.695434     2.490858    -1.683968
 C    -0.862643     2.102080     1.150014
 H    -0.465616     1.337283     1.818267
 C    -1.735238     4.075366    -0.586182
 H    -2.075862     4.844051    -1.285982
 C    -0.532675     3.431684     1.380532
 H     0.098253     3.680813     2.238601
 C    -0.955383     4.446228     0.513625
 C    -0.541115     5.869840     0.741522
 H    -0.767942     6.196541     1.768364
 H     0.546326     5.985622     0.599231
 H    -1.046300     6.555495     0.046596
 C    -3.418306    -0.577003    -2.649800
 H    -2.477700    -1.016982    -2.988462
 C    -4.632865     0.574410    -0.907937
 O    -4.589599     1.135477     0.312150
 C    -5.741779     1.706058     0.859807
 H    -6.105523     2.555181     0.254950
 H    -5.462888     2.072040     1.855963
 H    -6.554571     0.966524     0.965690
 C    -4.561771    -0.607519    -3.448491
 H    -4.529061    -1.068663    -4.437608
 C    -5.782606     0.545359    -1.704283
 H    -6.714957     0.983296    -1.346949
 C    -5.739309    -0.045863    -2.967583
 H    -6.645789    -0.060581    -3.578223
 C    -2.705118    -0.132286     2.377116
 H    -2.553700     0.946369     2.406914
 C    -2.784184    -2.196768     1.141144
 O    -2.690226    -2.790429    -0.059904
 C    -2.879019    -4.170995    -0.170200
 H    -2.146839    -4.732690     0.435801
 H    -2.731703    -4.422186    -1.227794
 H    -3.899004    -4.470012     0.128977
 C    -3.099123    -0.796746     3.538110
 H    -3.239101    -0.236180     4.464921
 C    -3.161206    -2.872793     2.307157
 H    -3.357219    -3.944859     2.283441
 C    -3.311098    -2.170271     3.502149
 H    -3.611249    -2.708003     4.405117
