  94
scf done:    -3751.141032
 C    -0.629357    -0.569964    -3.846481
 H    -1.136267    -1.505738    -4.102780
 H    -1.212695     0.328748    -4.064943
 C     0.786153    -0.525717    -3.860417
 H     1.347516    -1.423842    -4.136185
 H     1.304051     0.407587    -4.097405
 H     0.021326     1.045307    -2.042870
Rh     0.081949    -0.528540    -1.815303
 C    -1.523781     1.399021     0.651057
 C    -3.236323     0.536730    -1.464710
 C    -2.480653    -1.286840     0.579088
 C     1.764092    -0.883141     1.200038
 C     3.548054    -0.776580    -1.000776
 C     2.336771     1.644709    -0.084259
 P     1.931570    -0.102568    -0.455050
 P    -1.765491    -0.004908    -0.517778
 C     0.084796    -2.425012    -1.614297
 O     0.078323    -3.568369    -1.514353
 C    -1.905701     1.339350     1.996319
 H    -2.423545     0.456346     2.376467
 C    -0.868321     2.548954     0.191872
 H    -0.559192     2.607117    -0.853456
 C    -1.598103     2.378667     2.873632
 H    -1.873902     2.320153     3.927949
 C    -0.572019     3.601874     1.049199
 H    -0.047507     4.485809     0.684737
 C    -0.918722     3.497222     2.394934
Cl    -0.486200     4.773275     3.489147
 C    -3.952307     1.709740    -1.189356
 H    -3.630948     2.367640    -0.379048
 C    -3.682521    -0.282842    -2.505232
 H    -3.130818    -1.196842    -2.737575
 C    -5.072784     2.051318    -1.934350
 H    -5.632145     2.966344    -1.730481
 C    -4.812710     0.040082    -3.251372
 H    -5.129898    -0.626956    -4.053215
 C    -5.514909     1.219693    -2.971248
 O    -6.610463     1.628765    -3.639906
 C    -7.094005     0.841156    -4.691394
 H    -7.393253    -0.165058    -4.348142
 H    -7.977156     1.356175    -5.090194
 H    -6.349563     0.732424    -5.499806
 C    -1.625887    -2.198201     1.218451
 H    -0.554679    -2.169080     1.013186
 C    -3.848824    -1.358010     0.855429
 H    -4.538005    -0.665236     0.366720
 C    -2.116360    -3.129315     2.119103
 H    -1.450908    -3.823858     2.634697
 C    -4.359165    -2.300483     1.747620
 H    -5.433269    -2.330115     1.932313
 C    -3.490469    -3.190232     2.391733
 O    -3.882095    -4.128735     3.273243
 C    -5.241963    -4.239099     3.585923
 H    -5.849428    -4.486437     2.697427
 H    -5.332118    -5.054365     4.314864
 H    -5.636608    -3.311768     4.037716
 C     2.200922    -2.200801     1.389708
 H     2.781252    -2.699283     0.609581
 C     1.023275    -0.272817     2.221267
 H     0.653054     0.744685     2.096524
 C     1.890263    -2.898914     2.553663
 H     2.219592    -3.930198     2.690308
 C     0.717486    -0.954563     3.394116
 H     0.126523    -0.476069     4.176582
 C     1.142492    -2.272401     3.548953
Cl     0.709979    -3.152063     4.977861
 C     4.752919    -0.387312    -0.391854
 H     4.745430     0.367563     0.398033
 C     3.597826    -1.730094    -2.016164
 H     2.668092    -2.025737    -2.505697
 C     5.958767    -0.941451    -0.784265
 H     6.900850    -0.643029    -0.320470
 C     4.805141    -2.302649    -2.419391
 H     4.801990    -3.045549    -3.217164
 C     5.996365    -1.908255    -1.802475
 O     7.212578    -2.390411    -2.116865
 C     7.317171    -3.353612    -3.128185
 H     6.957221    -2.969808    -4.098954
 H     8.382308    -3.601670    -3.217483
 H     6.756304    -4.271871    -2.879944
 C     2.202815     2.584058    -1.119658
 H     1.874937     2.243955    -2.105264
 C     2.762125     2.103004     1.164268
 H     2.910345     1.400381     1.986330
 C     2.436385     3.930730    -0.900330
 H     2.316765     4.666059    -1.698318
 C     2.974749     3.459593     1.408763
 H     3.265349     3.779555     2.409254
 C     2.790327     4.386960     0.378964
 O     2.909815     5.718843     0.526208
 C     3.130390     6.235779     1.811681
 H     4.101790     5.911421     2.224055
 H     3.136397     7.328524     1.713061
 H     2.326032     5.939819     2.507483
