  90
scf done:    -3450.481698
 C    -0.884291     0.182393    -3.875531
 H    -1.363025    -0.708868    -4.292137
 H    -1.531607     1.063452    -3.857454
 C     0.521029     0.330910    -3.988476
 H     1.102912    -0.449436    -4.489524
 H     0.956126     1.331517    -4.061854
 H    -0.129709     1.415089    -1.840473
Rh    -0.001421    -0.161430    -1.949017
 C    -1.749018     1.545272     0.512873
 C    -3.465885     0.078221    -1.259057
 C    -2.121521    -1.299071     0.783219
 C     1.761098    -1.231144     0.862181
 C     3.495044    -0.312186    -1.198403
 C     2.104050     1.584550     0.411100
 P     1.824542     0.008078    -0.494669
 P    -1.802858     0.000092    -0.477646
 C     0.214145    -2.032395    -2.255925
 O     0.385902    -3.138685    -2.512034
 C    -1.377966     1.565992     1.860079
 H    -1.223191     0.627409     2.394450
 C    -1.954691     2.768549    -0.141631
 H    -2.226793     2.777066    -1.200216
 C    -1.198798     2.769964     2.539403
 H    -0.889118     2.780759     3.585455
 C    -1.804644     3.975850     0.528432
 H    -1.969446     4.925049     0.015952
 C    -1.412886     3.968125     1.867385
Cl    -1.171584     5.474313     2.692528
 C    -3.720515    -0.800101    -2.318973
 H    -2.914677    -1.442556    -2.681552
 C    -4.506008     0.895430    -0.806015
 H    -4.341446     1.585966     0.024317
 C    -4.978840    -0.859223    -2.905898
 H    -5.154912    -1.557681    -3.728932
 C    -5.761884     0.840519    -1.407397
 H    -6.560293     1.491294    -1.039610
 C    -6.022545    -0.034110    -2.466800
 C    -7.366811    -0.074516    -3.131880
 H    -7.671379    -1.107029    -3.359577
 H    -8.143487     0.381470    -2.501755
 H    -7.349863     0.476165    -4.087197
 C    -3.094708    -1.139950     1.778436
 H    -3.678967    -0.217884     1.831899
 C    -1.422685    -2.506247     0.724695
 H    -0.662140    -2.649133    -0.042571
 C    -3.325297    -2.147385     2.709609
 H    -4.078976    -1.997846     3.487788
 C    -1.672118    -3.519468     1.644405
 H    -1.103453    -4.450773     1.583171
 C    -2.614697    -3.353831     2.664069
 C    -2.840814    -4.437867     3.675566
 H    -1.903889    -4.671953     4.204991
 H    -3.595491    -4.148618     4.420013
 H    -3.179294    -5.367867     3.191834
 C     2.106711    -2.562507     0.590627
 H     2.512112    -2.832879    -0.387654
 C     1.241731    -0.922958     2.124312
 H     0.969703     0.106892     2.359709
 C     1.938265    -3.557230     1.548062
 H     2.206246    -4.592483     1.330803
 C     1.063539    -1.908413     3.091159
 H     0.644244    -1.664075     4.068292
 C     1.409387    -3.222856     2.794018
Cl     1.153518    -4.467137     3.975122
 C     3.700013    -0.075386    -2.558628
 H     2.851074     0.234980    -3.169761
 C     4.584251    -0.728243    -0.419972
 H     4.452126    -0.935685     0.644436
 C     4.961664    -0.241372    -3.127061
 H     5.098943    -0.047519    -4.194469
 C     5.838103    -0.899186    -0.993822
 H     6.673494    -1.228449    -0.369080
 C     6.051827    -0.657724    -2.358487
 C     7.406323    -0.865357    -2.969339
 H     8.196401    -0.401775    -2.359027
 H     7.644537    -1.939202    -3.044659
 H     7.462147    -0.440697    -3.981344
 C     2.961496     1.657715     1.516980
 H     3.468879     0.762145     1.881517
 C     1.491251     2.760297    -0.028762
 H     0.824205     2.714000    -0.892293
 C     3.167317     2.864623     2.177384
 H     3.831441     2.894492     3.045662
 C     1.709573     3.966869     0.627995
 H     1.206859     4.869630     0.270978
 C     2.540648     4.041534     1.750443
 C     2.731067     5.339647     2.476692
 H     3.053794     6.137114     1.789437
 H     1.782106     5.668297     2.929562
 H     3.480930     5.252502     3.275196
