 100
scf done:    -2910.899902
 C     0.191205    -3.836379    -0.772894
 H    -0.546291    -4.439572    -0.236591
 H     0.065819    -3.819707    -1.858803
 C     1.466955    -3.621021    -0.207903
 H     1.714932    -4.061100     0.762211
 H     2.329105    -3.432589    -0.851800
 H     0.883818    -1.460915    -1.416451
Rh     0.282734    -1.809935     0.008326
 C    -1.594411    -0.188125    -2.536149
 O    -3.013727    -1.530031    -0.791580
 O    -1.861159     0.640053     0.035906
 C     1.399959     0.837196     2.137545
 O     3.274023    -0.407821     0.834105
 O     1.674498     1.069115    -0.546040
 P     1.642701    -0.133921     0.624974
 P    -1.531492    -0.758763    -0.817064
 C    -0.370538    -2.319232     1.753534
 O    -0.711123    -2.648522     2.793958
 C    -0.609275     0.719475    -2.948185
 H     0.157890     1.047189    -2.241114
 C    -2.540077    -0.640916    -3.457530
 H    -3.301623    -1.356709    -3.142633
 C    -0.597543     1.183284    -4.256978
 H     0.171749     1.897358    -4.564244
 C    -2.509665    -0.176506    -4.770944
 H    -3.253912    -0.538774    -5.485557
 C    -1.547118     0.746008    -5.191681
 C    -1.523894     1.262175    -6.600137
 H    -1.752523     2.339945    -6.628451
 H    -0.530197     1.132110    -7.056396
 H    -2.259388     0.746086    -7.232726
 C    -3.375661    -2.238288     0.327928
 C    -3.791562    -1.571250     1.479419
 H    -3.838880    -0.480915     1.481931
 C    -3.327167    -3.629623     0.301632
 H    -3.003635    -4.130415    -0.612231
 C    -4.139016    -2.307262     2.608410
 H    -4.457986    -1.778606     3.510773
 C    -3.680071    -4.350237     1.438807
 H    -3.634303    -5.442485     1.413938
 C    -4.079307    -3.705357     2.615501
 C    -4.396350    -4.486018     3.857358
 H    -5.161638    -3.983656     4.466866
 H    -3.497265    -4.596979     4.486509
 H    -4.757252    -5.497037     3.619302
 C    -2.768421     1.633663    -0.206692
 C    -2.510785     2.865121     0.401907
 H    -1.619734     2.966957     1.024770
 C    -3.924819     1.466863    -0.968696
 H    -4.152915     0.500117    -1.414515
 C    -3.390908     3.925807     0.224090
 H    -3.175163     4.882628     0.708203
 C    -4.791571     2.545462    -1.139192
 H    -5.693237     2.403219    -1.741427
 C    -4.545199     3.792574    -0.558700
 C    -5.470663     4.954238    -0.777867
 H    -5.089394     5.623187    -1.567709
 H    -5.581645     5.560149     0.133950
 H    -6.471131     4.619370    -1.087196
 C     2.453660     1.452157     2.825389
 H     3.479421     1.300035     2.487319
 C     0.088675     1.030153     2.582757
 H    -0.738809     0.564401     2.042960
 C     2.189465     2.253846     3.929120
 H     3.020439     2.733682     4.453876
 C    -0.164171     1.838726     3.687685
 H    -1.195886     1.986257     4.018797
 C     0.878785     2.464304     4.378874
 C     0.610259     3.313828     5.585680
 H    -0.434262     3.654725     5.615831
 H     0.800041     2.747571     6.512798
 H     1.263490     4.198825     5.607502
 C     3.986669    -1.244366     0.018824
 C     4.802537    -2.201742     0.620849
 H     4.828533    -2.258963     1.710532
 C     3.923061    -1.154720    -1.371276
 H     3.276931    -0.410245    -1.838427
 C     5.544755    -3.071075    -0.169763
 H     6.174716    -3.824098     0.312235
 C     4.667652    -2.040724    -2.147949
 H     4.600953    -1.973408    -3.237261
 C     5.489240    -3.012707    -1.569140
 C     6.301507    -3.953528    -2.411328
 H     6.221336    -4.989415    -2.047840
 H     7.370876    -3.685131    -2.391895
 H     5.975370    -3.936929    -3.460817
 C     2.202953     2.317358    -0.332828
 C     3.580173     2.525759    -0.310224
 H     4.257393     1.681451    -0.445816
 C     1.328712     3.391254    -0.167795
 H     0.254188     3.204846    -0.198810
 C     4.072955     3.813308    -0.103572
 H     5.154915     3.970526    -0.081475
 C     1.837195     4.668783     0.034119
 H     1.143111     5.503709     0.166537
 C     3.217925     4.905115     0.075426
 C     3.753068     6.291833     0.287978
 H     4.841229     6.284256     0.442346
 H     3.290020     6.770595     1.164853
 H     3.544513     6.938129    -0.580392
