  62
scf done:    -2684.107348
 C    -4.056158     1.225747    -0.904875
 H    -4.619982     1.671148    -0.079338
 H    -3.828565     1.922210    -1.716988
 C    -4.208356    -0.156369    -1.190245
 H    -4.893125    -0.755610    -0.582070
 H    -4.097225    -0.514363    -2.217686
 H    -1.782913     0.431111    -1.748101
Rh    -2.294736     0.179010    -0.248602
 C     0.938213     1.582317    -0.429906
 C    -1.187584     3.442093    -0.730037
 C    -0.531160     2.432182     1.898887
 C     0.592087    -1.713548     0.393897
 C    -1.777036    -3.266055     0.385997
 C    -0.704883    -2.323181    -2.140901
 P    -1.053950    -1.763703    -0.418659
 P    -0.777217     1.871585     0.157428
 C    -2.892389    -0.187023     1.513302
 O    -3.223727    -0.462194     2.580680
 C     2.067036     1.658059     0.392030
 H     1.969847     1.901897     1.450614
 C     1.120444     1.244974    -1.779355
 H     0.247111     1.154529    -2.431312
 C     3.341529     1.398739    -0.108068
 H     4.212359     1.422549     0.549008
 C     2.386730     0.999068    -2.297066
 H     2.522883     0.735009    -3.347266
 C     3.492986     1.067467    -1.450264
Cl     5.067172     0.679885    -2.064196
 H    -2.219607     3.690101    -0.433398
 C    -0.240702     4.611335    -0.526292
 H     0.792826     4.343630    -0.795235
 H    -0.235007     4.958661     0.518316
 H    -1.252151     3.155242    -1.791940
 H    -0.537231     5.467975    -1.151302
 H     0.286534     3.169652     1.940740
 C    -1.796350     3.008668     2.515944
 H    -2.637208     2.303470     2.450412
 H    -2.104182     3.938718     2.014200
 H    -0.195789     1.544068     2.459237
 H    -1.637482     3.244637     3.578850
 C     0.628081    -1.440083     1.769467
 H    -0.305859    -1.302639     2.321987
 C     1.807017    -1.841816    -0.286426
 H     1.825521    -2.026648    -1.361079
 C     1.833816    -1.310004     2.449113
 H     1.855072    -1.091998     3.518241
 C     3.023887    -1.705382     0.377868
 H     3.966270    -1.774322    -0.167852
 C     3.029541    -1.436306     1.742470
Cl     4.538663    -1.195350     2.560449
 H    -1.835739    -3.030963     1.460862
 C    -3.152816    -3.624905    -0.149610
 H    -3.121734    -3.884105    -1.219423
 H    -3.846944    -2.779782    -0.038714
 H    -1.066526    -4.102342     0.285587
 H    -3.569070    -4.489734     0.388937
 H    -0.020043    -1.566439    -2.558141
 C    -0.186478    -3.738655    -2.343279
 H    -0.942138    -4.488092    -2.065733
 H     0.714436    -3.946301    -1.747206
 H    -1.655243    -2.168080    -2.675456
 H     0.067446    -3.910346    -3.400832
