  42
scf done:    -1303.419328
 C    -1.376280    -2.455758    -1.068731
 H    -1.833036    -3.089674    -0.302266
 H    -2.073240    -2.120760    -1.842321
 C    -0.002649    -2.624681    -1.388889
 H     0.584425    -3.385292    -0.864501
 H     0.342084    -2.419400    -2.406544
 H    -0.503450    -0.140426    -1.673875
Rh    -0.249146    -0.816390    -0.245081
 C    -1.628252     2.475792    -0.220374
 C    -3.537919     0.361611     0.041686
 C    -1.890307     1.099221     2.235336
 C     2.299439     1.174916     1.169392
 C     3.225102    -0.866442    -0.643674
 C     2.022660     1.491515    -1.680769
 P     1.795014     0.247118    -0.352040
 P    -1.788352     0.752810     0.433916
 C     0.032347    -1.607075     1.459419
 O     0.205273    -2.050694     2.506655
 H    -0.638039     2.831121     0.112674
 C    -1.758371     2.594053    -1.729416
 H    -2.771157     2.328192    -2.068874
 H    -1.054112     1.920018    -2.239504
 H    -2.377962     3.106553     0.288955
 H    -1.559275     3.623872    -2.063775
 H    -3.634758     0.192876    -1.039980
 H    -3.805338    -0.577074     0.547901
 H    -4.228125     1.160947     0.356496
 H    -2.670310     1.839242     2.474968
 H    -2.101874     0.162169     2.770554
 H    -0.916098     1.471825     2.584953
 H     2.203697     0.448015     1.993599
 C     3.663109     1.845694     1.190306
 H     3.765225     2.597321     0.392722
 H     4.479217     1.117403     1.069677
 H     1.494529     1.911711     1.334515
 H     3.829417     2.363490     2.147855
 H     3.290459    -1.583861     0.187510
 H     3.028071    -1.438624    -1.561521
 H     4.181388    -0.330575    -0.745895
 H     1.803878     1.008380    -2.643463
 H     1.298779     2.307407    -1.543131
 H     3.041759     1.906235    -1.705190
