  90
scf done:    -2729.922148
 C    -0.205011    -3.707300    -1.875048
 H     0.242527    -3.792663    -2.870003
 H     0.288567    -4.309722    -1.106624
 C    -1.585774    -3.416256    -1.746801
 H    -2.193910    -3.272759    -2.645244
 H    -2.139570    -3.782560    -0.878695
 H    -0.407926    -2.301219     0.218220
Rh    -0.437920    -1.656429    -1.239384
 C     1.541592     0.101139     0.992203
 C     2.655350    -2.403938     0.127147
 C     2.790340    -0.238047    -1.794879
 C    -1.443493     1.503408     0.043553
 C    -3.474959     0.105405    -1.372839
 C    -2.728882    -0.720121     1.330511
 P    -1.976160    -0.221138    -0.294345
 P     1.635143    -0.969916    -0.503141
 C    -0.404579    -0.893626    -2.977856
 O    -0.335333    -0.392442    -4.011981
 C     1.833956     1.468594     1.053390
 H     2.245923     1.990239     0.194342
 C     0.974049    -0.498357     2.128931
 H     0.696364    -1.554621     2.100061
 C     1.584832     2.208264     2.207911
 H     1.802744     3.276733     2.247210
 C     0.725614     0.224001     3.290456
 H     0.285890    -0.244359     4.173204
 C     1.033545     1.579943     3.313033
 F     0.778894     2.287559     4.412614
 H     2.617100    -3.144343    -0.685950
 H     2.073555    -2.832393     0.956320
 C     4.065690    -2.100114     0.522191
 C     4.366030    -1.465747     1.736896
 H     3.559558    -1.218046     2.429496
 C     5.125163    -2.410704    -0.341694
 H     4.914784    -2.927864    -1.282379
 C     5.678668    -1.134543     2.062468
 H     5.889041    -0.636570     3.012010
 C     6.439929    -2.078737    -0.018340
 H     7.248074    -2.328049    -0.710000
 C     6.721071    -1.432870     1.184053
 H     7.749866    -1.169555     1.440254
 H     2.181180    -0.193007    -2.706622
 H     3.543918    -1.023800    -1.956924
 C     3.470437     1.079564    -1.585961
 C     4.591704     1.206375    -0.756191
 H     5.001881     0.324390    -0.262607
 C     2.970776     2.226612    -2.215769
 H     2.110250     2.135439    -2.884865
 C     5.170583     2.452828    -0.534643
 H     6.038340     2.532024     0.124574
 C     3.548312     3.475313    -1.992705
 H     3.141067     4.359883    -2.488964
 C     4.646207     3.594201    -1.141801
 H     5.098224     4.572127    -0.960686
 C    -1.849206     2.245947     1.157752
 H    -2.494372     1.802950     1.917296
 C    -0.628516     2.124427    -0.911750
 H    -0.281580     1.548022    -1.773167
 C    -1.449717     3.570004     1.321211
 H    -1.750124     4.152917     2.193478
 C    -0.241317     3.453011    -0.777117
 H     0.402441     3.940954    -1.510498
 C    -0.654265     4.157443     0.347319
 F    -0.262886     5.421653     0.501415
 H    -3.983545    -0.865758    -1.470615
 H    -3.052281     0.338544    -2.361745
 C    -4.387871     1.194947    -0.905193
 C    -4.134157     2.528104    -1.259658
 H    -3.290383     2.755148    -1.915603
 C    -5.480409     0.934825    -0.067345
 H    -5.721371    -0.095202     0.205150
 C    -4.930556     3.563488    -0.780480
 H    -4.708777     4.593529    -1.069671
 C    -6.279889     1.969693     0.416261
 H    -7.127448     1.739416     1.066366
 C    -6.004498     3.289613     0.066045
 H    -6.629494     4.101834     0.444457
 H    -3.606455    -0.082754     1.522749
 H    -1.963938    -0.476592     2.083039
 C    -3.084021    -2.174761     1.406133
 C    -2.220010    -3.082108     2.031155
 H    -1.305546    -2.710253     2.498042
 C    -4.258891    -2.675415     0.832450
 H    -4.959266    -1.992650     0.348123
 C    -2.506896    -4.444130     2.064722
 H    -1.813302    -5.131812     2.554370
 C    -4.552385    -4.037154     0.864304
 H    -5.474043    -4.402676     0.405441
 C    -3.673403    -4.929116     1.475098
 H    -3.898565    -5.997766     1.496066
