  84
scf done:    -2452.962258
 C    -0.630716    -2.555727    -2.287236
 H    -1.118943    -3.447656    -1.884254
 H    -1.223485    -2.031727    -3.042175
 C     0.777790    -2.480481    -2.304198
 H     1.370728    -3.312509    -1.915095
 H     1.291954    -1.883888    -3.062333
 H     0.019593    -0.132181    -1.891301
Rh     0.032921    -1.203646    -0.722918
 C    -2.174723     1.600586    -0.618596
 C    -3.509321    -0.949861    -0.591021
 C    -2.273423    -0.050996     1.753098
 C     2.450556     0.074816     1.645700
 C     3.429355    -0.917133    -0.889113
 C     2.226048     1.675671    -0.686800
 P     1.977874    -0.061967    -0.140549
 P    -1.940371    -0.141833    -0.060922
 C     0.126351    -2.561785     0.613174
 O     0.221187    -3.416233     1.374246
 C    -2.137611     2.637013     0.324192
 H    -2.073817     2.393459     1.385248
 C    -2.277679     1.922846    -1.993868
 C    -2.366703     0.885030    -3.073291
 H    -3.401623     0.527756    -3.195904
 H    -1.747642     0.008291    -2.838391
 H    -2.036397     1.296689    -4.037357
 C    -2.175487     3.973795    -0.061379
 H    -2.133873     4.758850     0.696968
 C    -2.321947     3.274843    -2.356053
 H    -2.400518     3.525681    -3.417761
 C    -2.265796     4.295814    -1.411544
 H    -2.295242     5.340013    -1.732109
 C    -3.572639    -2.346894    -0.551423
 C    -4.650990    -0.229069    -0.960338
 C    -5.883339    -2.287580    -1.251504
 C    -5.829385    -0.895475    -1.294165
 C    -4.752986    -3.011713    -0.873423
 H    -2.682799    -2.911677    -0.264941
 H    -4.788116    -4.103103    -0.834826
 H    -6.806980    -2.809068    -1.513839
 H    -6.711600    -0.321010    -1.587472
 H    -4.618114     0.863403    -0.990133
 C    -1.255309    -0.375953     2.651721
 C    -3.530753     0.313343     2.256745
 C    -2.724259     0.044743     4.519165
 C    -3.752399     0.363960     3.629443
 C    -1.475697    -0.326552     4.027907
 H    -0.273961    -0.658438     2.267631
 H    -0.661263    -0.580211     4.710602
 H    -2.902582     0.080908     5.596748
 H    -4.736878     0.648523     4.008793
 H    -4.344969     0.554711     1.569846
 C     3.411154    -0.780102     2.202455
 H     3.955717    -1.473593     1.561354
 C     1.780889     0.995042     2.486610
 C     0.779007     1.983862     1.973845
 H     0.199794     1.578472     1.134463
 H     1.273004     2.895285     1.601454
 H     0.077605     2.271978     2.768761
 C     3.700861    -0.759098     3.563916
 H     4.453992    -1.439755     3.967542
 C     2.086447     0.995685     3.852759
 H     1.560757     1.701898     4.501589
 C     3.029981     0.130214     4.397547
 H     3.242761     0.155290     5.468991
 C     3.588381    -2.292232    -0.655797
 C     4.330596    -0.277204    -1.746084
 C     5.541315    -2.345780    -2.074704
 C     5.374991    -0.989457    -2.337968
 C     4.642664    -2.996182    -1.227796
 H     2.867500    -2.820230    -0.027172
 H     4.753758    -4.063839    -1.023589
 H     6.362117    -2.900225    -2.535740
 H     6.063744    -0.472711    -3.010828
 H     4.216682     0.785609    -1.964316
 C     1.312934     2.292017    -1.543135
 C     3.314903     2.415199    -0.201849
 C     2.561855     4.355607    -1.427949
 C     3.483466     3.745598    -0.574298
 C     1.477168     3.627227    -1.909999
 H     0.452639     1.722045    -1.899493
 H     0.740205     4.097781    -2.564544
 H     2.688837     5.403677    -1.710298
 H     4.334275     4.313070    -0.189307
 H     4.026335     1.947543     0.484106
