 116
scf done:    -3368.476350
 C     0.143075     1.042252    -3.280396
 H     1.140446     0.774890    -3.637982
 H    -0.701678     0.591667    -3.807036
 C    -0.044338     2.113382    -2.438534
 H     0.806784     2.699806    -2.097410
 H    -1.033675     2.554975    -2.294594
 H     0.001077     1.434833    -0.092471
Rh     0.057386     0.219522    -1.120104
 C    -2.654133     1.960269    -0.170357
 C    -3.596742    -0.676738    -0.960344
 C    -2.201034    -0.660721     1.384094
 C     1.728478    -1.162836     1.307978
 C     3.476561    -0.552321    -1.142604
 C     3.033937     1.364382     0.813050
 P     2.073269     0.036185    -0.055484
 P    -2.103397     0.192407    -0.275513
 C     0.189484    -1.518592    -1.840620
 O     0.313704    -2.595299    -2.242421
 C    -2.035595     2.784518     0.782478
 H    -1.318760     2.344336     1.472671
 C    -3.461628     2.569117    -1.156177
 C    -4.015973     1.861902    -2.362736
 H    -4.909511     1.264132    -2.130686
 H    -3.279105     1.178146    -2.807989
 H    -4.295754     2.601190    -3.126984
 C    -2.297428     4.144685     0.865398
 H    -1.807428     4.746094     1.635890
 C    -3.711468     3.948865    -1.056883
 H    -4.345109     4.412859    -1.818137
 C    -3.166244     4.735061    -0.051785
 H    -3.387385     5.804336    -0.006976
 C    -4.800140    -0.652124    -0.228831
 O    -4.827872     0.182310     0.821922
 C    -5.911181     0.175019     1.701907
 H    -5.665008     0.894662     2.492424
 H    -6.846231     0.493992     1.208568
 H    -6.062615    -0.820451     2.154370
 C    -3.561904    -1.444037    -2.138648
 O    -2.453566    -1.348595    -2.892405
 C    -2.323105    -2.129069    -4.045343
 H    -1.330770    -1.908082    -4.457144
 H    -3.093155    -1.880969    -4.796815
 H    -2.375555    -3.207622    -3.817702
 C    -4.656622    -2.233370    -2.518904
 H    -4.617562    -2.839964    -3.422385
 C    -5.901221    -1.433728    -0.602623
 H    -6.822010    -1.417104    -0.020823
 C    -5.807865    -2.226348    -1.739971
 H    -6.660157    -2.842285    -2.037421
 C    -1.956191    -2.052866     1.316778
 O    -1.697521    -2.547838     0.093728
 C    -1.641421    -3.930411    -0.107328
 H    -1.456377    -4.076125    -1.177995
 H    -0.812562    -4.389028     0.456990
 H    -2.591713    -4.415745     0.175225
 C    -2.526442    -0.137243     2.650993
 O    -2.852194     1.168175     2.720865
 C    -3.064566     1.781293     3.954078
 H    -3.236252     2.845264     3.740601
 H    -2.190390     1.684724     4.622667
 H    -3.950940     1.375295     4.474815
 C    -2.555249    -0.949039     3.793407
 H    -2.801252    -0.521815     4.764604
 C    -2.018512    -2.872831     2.447541
 H    -1.818196    -3.939139     2.365638
 C    -2.305819    -2.310035     3.681147
 H    -2.337999    -2.942030     4.571709
 C     1.674536    -2.533038     1.016060
 H     1.829003    -2.867496    -0.007473
 C     1.334201    -0.734506     2.596437
 C     1.076326     0.701759     2.958583
 H     0.625691     1.240076     2.111146
 H     1.986228     1.248574     3.248417
 H     0.371417     0.743640     3.802089
 C     1.431581    -3.480141     2.002747
 H     1.429171    -4.543109     1.744976
 C     1.095059    -1.707663     3.576886
 H     0.799931    -1.371929     4.574796
 C     1.182099    -3.067422     3.310400
 H     0.993922    -3.797182     4.101585
 C     4.250213    -1.731559    -1.109045
 O     4.098712    -2.558850    -0.059690
 C     4.696123    -3.819506    -0.057695
 H     4.326689    -4.329810     0.842476
 H     4.416463    -4.413484    -0.945681
 H     5.798053    -3.757021    -0.006548
 C     3.772791     0.366876    -2.178229
 O     3.116378     1.541077    -2.116024
 C     3.460136     2.584468    -2.980018
 H     2.876394     3.455249    -2.657335
 H     3.200894     2.354352    -4.028084
 H     4.535182     2.825877    -2.915975
 C     4.700756     0.088268    -3.185866
 H     4.889890     0.807494    -3.981412
 C     5.173730    -2.023213    -2.125850
 H     5.745512    -2.949575    -2.095825
 C     5.382808    -1.121346    -3.158242
 H     6.104437    -1.355888    -3.944238
 C     4.131254     0.963928     1.605796
 O     4.396417    -0.348821     1.608890
 C     5.314732    -0.891224     2.508625
 H     5.267803    -1.977923     2.368797
 H     6.344046    -0.545170     2.307372
 H     5.050473    -0.651237     3.552973
 C     2.736575     2.740307     0.761494
 O     1.704526     3.125871    -0.003144
 C     1.222419     4.436568     0.072526
 H     0.302029     4.461072    -0.524224
 H     1.944784     5.166521    -0.335275
 H     0.975431     4.721286     1.109609
 C     3.485238     3.667106     1.503659
 H     3.244986     4.728342     1.462414
 C     4.878777     1.883415     2.352024
 H     5.716108     1.552982     2.965333
 C     4.541527     3.229403     2.291746
 H     5.119579     3.956438     2.867526
