 104
scf done:    -2315.124295
 C    -0.563958    -3.707643    -1.155817
 H    -1.337221    -4.262330    -0.614109
 H    -0.782245    -3.571960    -2.219131
 C     0.788354    -3.799710    -0.721554
 H     1.034399    -4.418127     0.147648
 H     1.592132    -3.732859    -1.460012
 H     0.519768    -1.475463    -1.667694
Rh    -0.002886    -1.865354    -0.210742
 C    -1.028645     1.126335    -1.694706
 C    -3.092753    -0.856932    -1.623355
 C    -2.369843     0.542804     0.802979
 C     1.120521     0.805452     1.727550
 C     3.152133    -1.166914     1.360156
 C     2.439331     0.575407    -0.835922
 P     1.687285    -0.438697     0.500760
 P    -1.623499    -0.274197    -0.669366
 C    -0.657916    -2.392646     1.494931
 O    -1.082916    -2.711745     2.515208
 C    -0.923858     2.437764    -1.222308
 H    -1.289671     2.698362    -0.228837
 C    -0.532500     0.850632    -2.978640
 H    -0.571424    -0.171907    -3.362878
 C    -0.317683     3.430797    -1.993787
 H    -0.236129     4.444663    -1.591267
 C     0.055494     1.845050    -3.748845
 H     0.439658     1.597366    -4.742611
 C     0.190174     3.155164    -3.265010
 C     0.877594     4.208360    -4.082325
 H     1.953212     3.988144    -4.180243
 H     0.464610     4.258971    -5.101608
 H     0.779778     5.202791    -3.624920
 H    -2.700819    -1.244542    -2.578282
 H    -3.734509     0.006879    -1.858949
 C    -3.845639    -1.954655    -0.886516
 H    -3.112976    -2.708413    -0.554132
 H    -4.301858    -1.545090     0.033702
 C    -4.936924    -2.646191    -1.706220
 H    -4.457036    -3.043843    -2.620587
 C    -5.510645    -3.825472    -0.929527
 H    -4.723301    -4.542468    -0.649721
 H    -6.267688    -4.366427    -1.518357
 H    -5.994708    -3.483251     0.000640
 C    -6.040279    -1.684651    -2.133773
 H    -6.820220    -2.204820    -2.711375
 H    -5.656794    -0.865541    -2.760567
 H    -6.526045    -1.232299    -1.252201
 H    -1.543035     1.094737     1.280046
 H    -2.595825    -0.279289     1.499514
 C    -3.584990     1.438752     0.597709
 H    -3.473252     2.031326    -0.325663
 H    -4.484797     0.816601     0.444044
 C    -3.837652     2.400734     1.762633
 H    -2.938220     3.040416     1.855649
 C    -5.028280     3.302992     1.463261
 H    -4.888827     3.854304     0.520107
 H    -5.186953     4.040779     2.265200
 H    -5.954154     2.711303     1.368483
 C    -4.018276     1.668200     3.087480
 H    -4.232191     2.375401     3.904343
 H    -3.119631     1.098137     3.367169
 H    -4.863331     0.961000     3.033587
 C     0.654802     0.357240     2.974019
 H     0.725430    -0.701652     3.234681
 C     0.988924     2.166666     1.435299
 H     1.331577     2.561300     0.478455
 C     0.064534     1.231664     3.877313
 H    -0.296482     0.848137     4.835920
 C     0.386974     3.040138     2.342240
 H     0.287554     4.097434     2.079540
 C    -0.095451     2.591897     3.573860
 C    -0.779987     3.518301     4.534615
 H    -0.693977     4.566456     4.215689
 H    -1.852982     3.278575     4.613318
 H    -0.355290     3.433203     5.546717
 H     2.763080    -1.670525     2.260762
 H     3.805607    -0.349077     1.703230
 C     3.888533    -2.167698     0.482716
 H     3.149193    -2.877388     0.078547
 H     4.322658    -1.650218    -0.392825
 C     5.000417    -2.945809     1.189351
 H     4.545267    -3.447455     2.064483
 C     5.552547    -4.026410     0.266830
 H     4.756704    -4.705544    -0.076195
 H     6.322399    -4.632095     0.769794
 H     6.015057    -3.577447    -0.628304
 C     6.115627    -2.037630     1.695429
 H     6.910076    -2.619066     2.188677
 H     5.749978    -1.296556     2.422067
 H     6.578206    -1.486088     0.859021
 H     1.612902     1.185806    -1.235331
 H     2.664144    -0.144611    -1.636920
 C     3.649846     1.433985    -0.492088
 H     3.537487     1.871874     0.513953
 H     4.553743     0.800777    -0.441123
 C     3.893922     2.571851    -1.488002
 H     2.990247     3.212180    -1.475901
 C     5.079593     3.422260    -1.049497
 H     4.938783     3.814103    -0.029915
 H     5.231612     4.280273    -1.722816
 H     6.009547     2.829349    -1.052060
 C     4.075413     2.062994    -2.913595
 H     4.282672     2.893643    -3.606643
 H     3.178830     1.540054    -3.278784
 H     4.924973     1.361823    -2.975521
