  54
scf done:    -1460.537839
 C     1.013784    -2.749255     0.942599
 H     1.630975    -3.281947     0.212206
 H     1.513116    -2.572273     1.899847
 C    -0.396642    -2.914384     0.906170
 H    -0.840754    -3.564695     0.145713
 H    -0.967191    -2.863796     1.837623
 H    -0.002835    -0.545400     1.704993
Rh     0.119809    -0.954727     0.164641
 C     1.560405     2.127762     1.237052
 C     3.446529     0.021952     0.769695
 C     2.211109     1.392530    -1.458933
 C    -1.700292     1.612913    -1.400664
 C    -3.350818    -0.621207    -0.600272
 C    -2.339307     1.182318     1.434596
 P    -1.821456     0.288562    -0.098577
 P     1.803546     0.628612     0.179817
 C     0.260771    -1.452767    -1.662693
 O     0.341368    -1.725071    -2.777726
 H     0.656281     2.625224     0.846672
 C     1.410511     1.838230     2.721600
 H     2.337351     1.424843     3.147640
 H     0.610129     1.104952     2.901844
 H     2.400823     2.820250     1.065063
 H     1.173725     2.757382     3.279386
 H     3.256099    -0.415511     1.762617
 C     4.059218    -1.021177    -0.151058
 H     4.345247    -0.591872    -1.123826
 H     3.343898    -1.834784    -0.341447
 H     4.127755     0.877792     0.917727
 H     4.965105    -1.459759     0.294313
 H     1.281990     1.887334    -1.786602
 C     3.392614     2.346026    -1.539375
 H     4.334714     1.858031    -1.246797
 H     3.260892     3.227713    -0.894274
 H     2.345803     0.544635    -2.150137
 H     3.523853     2.715159    -2.568566
 H    -1.032494     1.188118    -2.166944
 C    -2.959832     2.153380    -2.063087
 H    -3.674143     2.573243    -1.341584
 H    -3.484034     1.370364    -2.630279
 H    -1.123065     2.426182    -0.927096
 H    -2.703731     2.952284    -2.776798
 H    -3.109574    -1.084234    -1.571955
 C    -3.775625    -1.682862     0.400951
 H    -4.078770    -1.236783     1.361123
 H    -2.950813    -2.379651     0.602964
 H    -4.169535     0.093504    -0.783259
 H    -4.633120    -2.259412     0.021729
 H    -1.457142     1.772171     1.731143
 C    -3.591086     2.043700     1.415579
 H    -4.475560     1.483734     1.074737
 H    -3.477271     2.920853     0.762024
 H    -2.414404     0.388706     2.195571
 H    -3.815059     2.420335     2.426030
