 104
scf done:    -2315.105709
 C     0.187966     3.363550    -0.398023
 H    -0.417916     3.853990    -1.167059
 H    -0.083116     3.651003     0.622839
 C     1.534157     3.010465    -0.694254
 H     1.939178     3.230088    -1.687309
 H     2.282800     3.021848     0.103065
 H     0.655612     1.305161     0.925680
Rh     0.314755     1.235338    -0.618256
 C    -1.213273    -0.912133     1.624502
 C    -2.688477     1.617672     1.136423
 C    -2.802003    -0.509310    -0.759012
 C     0.990101    -2.241164    -1.201130
 C     3.210871    -0.594484    -1.695222
 C     2.442876    -1.036481     1.083670
 P     1.731887    -0.644369    -0.580845
 P    -1.596519     0.356278     0.339412
 C    -0.172547     1.328563    -2.454497
 O    -0.497230     1.465659    -3.549613
 C    -1.225112    -2.257395     1.220686
 H    -1.552907    -2.522411     0.215141
 C    -0.740772    -0.600133     2.921902
 C    -0.649154     0.800419     3.455006
 H    -1.638335     1.194126     3.734788
 H    -0.216525     1.483771     2.708381
 H    -0.015547     0.829343     4.352201
 C    -0.797206    -3.282103     2.059600
 H    -0.814461    -4.313695     1.700841
 C    -0.321414    -1.648117     3.751721
 H     0.042198    -1.402852     4.753504
 C    -0.343694    -2.977180     3.338948
 H    -0.002904    -3.766513     4.013085
 H    -3.429918     1.131257     1.792199
 H    -2.040585     2.236009     1.771257
 C    -3.357283     2.512808     0.100595
 H    -2.604833     2.803599    -0.653114
 H    -4.138384     1.953266    -0.441840
 C    -3.972395     3.765636     0.707988
 H    -3.184313     4.336661     1.231753
 H    -4.704128     3.479934     1.485975
 C    -4.647858     4.665070    -0.317523
 H    -3.912001     4.938353    -1.094279
 H    -5.433505     4.091250    -0.840649
 C    -5.248986     5.924272     0.285383
 H    -5.728411     6.553258    -0.479943
 H    -4.478528     6.535276     0.782721
 H    -6.012576     5.680466     1.041738
 H    -3.018509     0.216809    -1.560527
 H    -2.252694    -1.321629    -1.257174
 C    -4.086004    -1.030820    -0.131493
 H    -3.846793    -1.656836     0.744875
 H    -4.685524    -0.189071     0.255264
 C    -4.927892    -1.837680    -1.111231
 H    -4.328276    -2.686097    -1.489562
 H    -5.156332    -1.216784    -1.996855
 C    -6.224962    -2.363017    -0.512556
 H    -5.989422    -2.976050     0.375421
 H    -6.820049    -1.511787    -0.136663
 C    -7.056389    -3.176315    -1.491291
 H    -7.986380    -3.542071    -1.030263
 H    -6.498375    -4.053976    -1.855671
 H    -7.335525    -2.576856    -2.372818
 C     0.003774    -2.047464    -2.178481
 H    -0.244205    -1.024747    -2.461618
 C     1.323724    -3.571173    -0.846808
 C     2.407137    -3.960092     0.118843
 H     2.141297    -3.709550     1.156165
 H     3.360304    -3.462694    -0.108539
 H     2.580620    -5.043778     0.072804
 C    -0.684698    -3.100203    -2.773441
 H    -1.445350    -2.895786    -3.530569
 C     0.598927    -4.618341    -1.434801
 H     0.844639    -5.643465    -1.143782
 C    -0.399975    -4.402312    -2.378525
 H    -0.937155    -5.249239    -2.812068
 H     3.733901    -1.565547    -1.643177
 H     2.790166    -0.517784    -2.712177
 C     4.165857     0.559939    -1.437057
 H     3.580727     1.489081    -1.344268
 H     4.670440     0.417077    -0.465956
 C     5.217643     0.721056    -2.525480
 H     4.712514     0.876538    -3.496225
 H     5.789072    -0.219314    -2.633426
 C     6.180060     1.872228    -2.267968
 H     5.600120     2.804758    -2.151069
 H     6.683603     1.712310    -1.297855
 C     7.220642     2.048183    -3.361910
 H     7.900146     2.886846    -3.146805
 H     6.745557     2.246861    -4.336141
 H     7.836965     1.141821    -3.477116
 H     1.663524    -1.606227     1.615407
 H     3.303821    -1.705930     0.950895
 C     2.859618     0.149212     1.941160
 H     3.648861     0.733490     1.439197
 H     2.006708     0.837117     2.042357
 C     3.336721    -0.281397     3.320670
 H     4.221850    -0.937457     3.226481
 H     2.553438    -0.903042     3.791509
 C     3.668668     0.889027     4.235349
 H     4.447401     1.511872     3.760672
 H     2.780361     1.540197     4.319461
 C     4.125408     0.463364     5.621194
 H     4.354653     1.329790     6.260042
 H     5.032296    -0.160601     5.569256
 H     3.349723    -0.130428     6.131829
