 116
scf done:    -3368.438304
 C     0.641316    -2.498021    -2.671253
 H     1.330776    -1.942318    -3.309444
 H     1.007041    -3.483465    -2.363344
 C    -0.754917    -2.260034    -2.765589
 H    -1.138081    -1.524902    -3.478826
 H    -1.467843    -3.056657    -2.527093
 H     0.251519    -0.113385    -2.051925
Rh    -0.003749    -1.284054    -1.015937
 C    -1.939445     1.726247    -0.730832
 C    -3.358611    -0.832687    -1.019770
 C    -2.179783     0.024017     1.524128
 C     1.568792     0.396802     1.729028
 C     3.532467    -1.122734     0.280453
 C     2.398149     1.137055    -1.007004
 P     1.879030    -0.302076     0.051277
 P    -1.850865    -0.075387    -0.289384
 C    -0.357233    -2.843562     0.021963
 O    -0.579824    -3.876482     0.476830
 C    -0.974750     2.271161    -1.580392
 H    -0.195057     1.616879    -1.976330
 C    -2.939875     2.574393    -0.238339
 H    -3.725546     2.176621     0.403111
 C    -1.008709     3.616974    -1.936046
 H    -0.238057     4.006328    -2.607858
 C    -2.964742     3.921017    -0.590706
 H    -3.761377     4.559960    -0.197367
 C    -2.001139     4.471024    -1.444651
 C    -2.013239     5.931140    -1.793024
 H    -3.037253     6.331882    -1.824602
 H    -1.458269     6.522554    -1.044265
 H    -1.540798     6.117123    -2.768718
 C    -3.893687    -2.000116    -0.444780
 O    -3.298709    -2.405693     0.690319
 C    -3.636035    -3.624677     1.282371
 H    -2.961434    -3.735664     2.139914
 H    -4.682943    -3.634993     1.636265
 H    -3.481563    -4.469710     0.590294
 C    -3.881879    -0.411576    -2.254528
 O    -3.255420     0.623243    -2.841213
 C    -3.764457     1.190195    -4.010590
 H    -3.116484     2.045637    -4.241919
 H    -4.799017     1.551021    -3.873778
 H    -3.740831     0.481116    -4.857021
 C    -4.972654    -1.069868    -2.839797
 H    -5.383553    -0.724663    -3.787856
 C    -4.971633    -2.675150    -1.027888
 H    -5.382084    -3.571537    -0.563788
 C    -5.509324    -2.190260    -2.216302
 H    -6.353287    -2.709335    -2.676921
 C    -3.359617     0.300551     2.116979
 O    -4.480384     0.480972     1.362650
 C    -5.647466    -0.202174     1.740535
 H    -6.313544    -0.192470     0.867684
 H    -5.430889    -1.250146     2.003557
 H    -6.165195     0.283017     2.587037
 C    -0.959332    -0.209252     2.387528
 O    -0.769265    -1.594437     2.404863
 C     0.396920    -2.133436     2.965869
 H     0.148120    -3.149611     3.306124
 H     0.770272    -1.557928     3.829712
 H     1.207825    -2.205951     2.224472
 C    -1.047146     0.433560     3.789483
 H    -0.471696    -0.185517     4.495300
 C    -3.481406     0.562886     3.553618
 H    -4.481692     0.734991     3.957124
 C    -2.401724     0.674240     4.342146
 H    -2.514624     0.919567     5.402901
 C     2.516460     0.586170     2.667421
 H     3.546148     0.285328     2.474015
 C     0.159536     0.821226     1.990438
 H    -0.174416     1.396225     1.116038
 C     2.246824     1.282174     3.919182
 H     3.082568     1.415326     4.613483
 C    -0.115811     1.592895     3.313810
 H    -0.689417     2.520037     3.149043
 C     1.050326     1.828126     4.219853
 C     0.791242     2.611855     5.463729
 H     0.428357     3.625574     5.219080
 H    -0.000606     2.143206     6.074499
 H     1.691926     2.706887     6.086741
 C     4.733426    -0.380120     0.292315
 O     4.619794     0.953176     0.440305
 C     5.673254     1.797963     0.077161
 H     5.269005     2.818532     0.094755
 H     6.519461     1.733925     0.783862
 H     6.034426     1.578500    -0.942024
 C     3.645986    -2.528437     0.267653
 O     2.508628    -3.234627     0.376678
 C     2.548613    -4.630678     0.268372
 H     1.512819    -4.975797     0.358396
 H     3.152008    -5.084802     1.073711
 H     2.953691    -4.949067    -0.707554
 C     4.896146    -3.155525     0.156416
 H     4.971171    -4.241040     0.126007
 C     5.983893    -0.998875     0.174610
 H     6.897313    -0.404994     0.168832
 C     6.048747    -2.383565     0.094453
 H     7.020882    -2.874725     0.005683
 C     3.037458     0.826488    -2.223991
 O     3.247912    -0.482243    -2.453656
 C     3.977562    -0.895157    -3.569691
 H     4.050852    -1.987833    -3.501603
 H     3.472916    -0.629072    -4.515034
 H     4.995815    -0.467222    -3.571738
 C     2.168688     2.492658    -0.720360
 O     1.545739     2.777839     0.437116
 C     1.289372     4.104346     0.793851
 H     0.805021     4.068764     1.777886
 H     0.607197     4.593284     0.077681
 H     2.220183     4.692485     0.877904
 C     2.572968     3.499662    -1.610669
 H     2.382589     4.546711    -1.379554
 C     3.444561     1.823978    -3.117162
 H     3.935965     1.564473    -4.054017
 C     3.205662     3.156313    -2.798233
 H     3.515619     3.941941    -3.491476
