  96
scf done:    -2458.759704
 C    -0.641641    -2.518481    -2.630666
 H     0.001758    -2.412758    -3.509597
 H    -0.433648    -3.400316    -2.017620
 C    -1.943205    -1.966347    -2.653273
 H    -2.290639    -1.442067    -3.548943
 H    -2.737483    -2.433001    -2.065577
 H    -1.180096    -1.710673    -0.236488
Rh    -0.666716    -0.741238    -1.384869
 C     1.449530    -2.892158     0.227669
 O     2.746704    -0.816720    -0.921853
 O     1.442406    -0.398219     1.214806
 C    -1.088726     2.476932    -0.156702
 O    -3.359732     1.085124    -0.295511
 O    -1.672027     0.403741     1.481526
 P    -1.751080     0.773358    -0.110996
 P     1.270387    -1.128732    -0.248128
 C    -0.261210     0.469861    -2.814657
 O    -0.104855     1.196338    -3.688587
 C     0.729032    -3.276009     1.368704
 H     0.193604    -2.510324     1.937192
 C     2.104218    -3.870076    -0.547383
 C     2.849672    -3.557603    -1.813669
 H     3.753905    -2.966816    -1.611377
 H     2.231591    -2.969006    -2.507770
 H     3.143045    -4.485456    -2.323627
 C     0.677303    -4.602615     1.778582
 H     0.114417    -4.877942     2.673394
 C     2.037373    -5.202314    -0.115023
 H     2.544383    -5.968733    -0.707753
 C     1.342494    -5.572664     1.031537
 H     1.311907    -6.621933     1.334903
 C     2.866203    -0.152260    -2.170749
 H     3.823941    -0.489145    -2.600058
 H     2.065433    -0.498201    -2.845335
 C     2.835676     1.357989    -2.050000
 H     2.706285     1.774847    -3.064004
 H     1.930610     1.650819    -1.488716
 C     4.070859     1.962656    -1.401423
 H     4.962113     1.685724    -1.992476
 H     4.214582     1.506006    -0.410026
 C     3.988344     3.473787    -1.266499
 H     3.875857     3.956856    -2.250561
 H     3.117987     3.767726    -0.659497
 H     4.888829     3.890895    -0.790513
 C     2.485442    -0.725007     2.131847
 H     2.017244    -0.723942     3.129996
 H     2.851896    -1.746767     1.944153
 C     3.638174     0.255919     2.096110
 H     4.340597    -0.044925     2.894102
 H     4.180437     0.136833     1.144175
 C     3.229569     1.708475     2.285854
 H     2.584688     1.793446     3.178873
 H     2.601150     2.006922     1.432650
 C     4.412259     2.653936     2.414348
 H     5.023649     2.415523     3.299588
 H     5.071459     2.591038     1.534215
 H     4.086855     3.701549     2.507353
 C    -0.031345     2.750064     0.721478
 H     0.287371     1.973827     1.420424
 C    -1.474329     3.436332    -1.115863
 C    -2.575076     3.206031    -2.112016
 H    -3.558321     3.213708    -1.620002
 H    -2.480948     2.231792    -2.613488
 H    -2.561964     3.986402    -2.885166
 C     0.622148     3.977877     0.698286
 H     1.434251     4.177804     1.401214
 C    -0.790748     4.659133    -1.129297
 H    -1.078513     5.410403    -1.869874
 C     0.236739     4.939161    -0.233146
 H     0.744076     5.906170    -0.271541
 C    -4.188776     0.215873    -1.055285
 H    -5.050511     0.826424    -1.370302
 H    -3.643030    -0.106614    -1.956908
 C    -4.643036    -0.994154    -0.265549
 H    -5.188815    -1.663738    -0.954013
 H    -3.746112    -1.552643     0.055449
 C    -5.515965    -0.666866     0.936641
 H    -6.446968    -0.184318     0.589847
 H    -5.001252     0.087374     1.553562
 C    -5.845865    -1.884097     1.784102
 H    -6.375548    -2.651337     1.196355
 H    -4.928960    -2.350176     2.179586
 H    -6.484321    -1.622928     2.641752
 C    -2.330770     1.173425     2.478653
 H    -2.106475     2.246322     2.341061
 H    -3.420446     1.050116     2.376988
 C    -1.854914     0.695556     3.831975
 H    -2.439887     1.217337     4.609450
 H    -2.095778    -0.377905     3.926201
 C    -0.364526     0.910042     4.050483
 H    -0.147251     1.992532     4.016324
 H     0.169010     0.464651     3.196254
 C     0.151097     0.321536     5.352618
 H    -0.359879     0.756627     6.226866
 H    -0.009759    -0.768319     5.387912
 H     1.230313     0.500936     5.478175
