  94
scf done:    -3751.124438
 C     1.561313    -2.722664    -2.185256
 H     2.159487    -2.417791    -3.049467
 H     2.145542    -3.147936    -1.365190
 C     0.208097    -3.097291    -2.359639
 H    -0.224974    -3.087161    -3.365115
 H    -0.260610    -3.810472    -1.676297
 H     0.372289    -2.004596    -0.118259
Rh     0.300122    -1.139190    -1.439191
 C     1.362817     1.604340     0.570360
 C     2.663453    -0.962733     1.041483
 C     3.343853     0.758921    -1.233884
 C    -2.603228     0.928015    -0.658649
 C    -3.094518    -1.825924    -0.727991
 C    -1.500400    -0.656758     1.463950
 P    -1.707010    -0.663485    -0.361747
 P     1.927296     0.069840    -0.283231
 C     0.110312    -0.273701    -3.127390
 O    -0.021499     0.147222    -4.191160
 C     0.455571     2.389580    -0.148830
 H     0.147280     2.063674    -1.143539
 C     1.752028     2.031914     1.843834
 H     2.476749     1.452254     2.415198
 C    -0.088369     3.551257     0.388558
 H    -0.816529     4.139624    -0.172466
 C     1.209274     3.185474     2.403076
 H     1.495323     3.507711     3.405842
 C     0.282325     3.932793     1.677003
Cl    -0.425023     5.344580     2.391610
 C     2.021394    -1.079186     2.274505
 H     1.130318    -0.482425     2.474105
 C     3.769051    -1.797991     0.780037
 O     4.308859    -1.707854    -0.449992
 C     5.411690    -2.493128    -0.794289
 H     6.280381    -2.287677    -0.144160
 H     5.669094    -2.226516    -1.827161
 H     5.177195    -3.571293    -0.748653
 C     2.481900    -1.957210     3.255846
 H     1.957138    -2.019725     4.211095
 C     4.239009    -2.674077     1.763192
 H     5.100693    -3.311761     1.564376
 C     3.597226    -2.746691     2.999578
 H     3.973427    -3.437509     3.758164
 C     3.328956     0.696247    -2.623876
 H     2.487779     0.199679    -3.108373
 C     4.445327     1.368864    -0.597562
 O     4.434448     1.371459     0.748404
 C     5.490011     1.960168     1.451130
 H     6.451341     1.460687     1.238455
 H     5.258812     1.842324     2.517543
 H     5.586030     3.035613     1.221637
 C     4.362153     1.236098    -3.391513
 H     4.322668     1.177373    -4.480940
 C     5.483596     1.912038    -1.358755
 H     6.335668     2.388305    -0.873222
 C     5.434999     1.844934    -2.752076
 H     6.252883     2.275651    -3.335121
 C    -3.583504     1.412717     0.219459
 H    -3.828212     0.846090     1.118266
 C    -2.344823     1.650563    -1.825867
 H    -1.602918     1.284141    -2.535453
 C    -4.250182     2.605415    -0.038777
 H    -5.001342     2.987418     0.654481
 C    -3.010997     2.841252    -2.105452
 H    -2.797339     3.400689    -3.017517
 C    -3.952938     3.320460    -1.198793
Cl    -4.764723     4.817381    -1.514365
 C    -3.081849    -2.434142    -1.982087
 H    -2.236274    -2.222359    -2.639980
 C    -4.171372    -2.100911     0.140451
 O    -4.177117    -1.471316     1.333092
 C    -5.106082    -1.837048     2.312028
 H    -6.139937    -1.587306     2.015144
 H    -4.844854    -1.268687     3.214069
 H    -5.051130    -2.915683     2.540369
 C    -4.094305    -3.303867    -2.387024
 H    -4.058054    -3.763511    -3.376654
 C    -5.175631    -2.991752    -0.249597
 H    -6.003169    -3.217243     0.423470
 C    -5.134829    -3.586570    -1.510731
 H    -5.931908    -4.275145    -1.802008
 C    -1.358289     0.525607     2.188642
 H    -1.423282     1.484771     1.673699
 C    -1.360517    -1.883300     2.147280
 O    -1.465976    -2.991594     1.394916
 C    -1.124905    -4.235499     1.937249
 H    -0.097226    -4.229442     2.339359
 H    -1.186416    -4.958892     1.114678
 H    -1.825135    -4.542594     2.734176
 C    -1.118989     0.511716     3.565061
 H    -1.006498     1.455649     4.101597
 C    -1.134737    -1.903636     3.525389
 H    -1.037828    -2.852974     4.052464
 C    -1.020469    -0.704309     4.230904
 H    -0.840822    -0.731310     5.308530
