  98
scf done:    -3153.360076
 C    -0.545520    -3.856619    -1.237221
 H    -1.351469    -4.407095    -0.741101
 H    -0.708501    -3.704763    -2.308116
 C     0.780926    -3.967215    -0.736340
 H     0.976569    -4.595861     0.138160
 H     1.622527    -3.897463    -1.430900
 H     0.582662    -1.630196    -1.667427
Rh    -0.015990    -2.028939    -0.242675
 C    -0.937919     0.981792    -1.735595
 C    -3.028165    -0.977455    -1.802829
 C    -2.415533     0.380702     0.679241
 C     1.039943     0.604908     1.767361
 C     3.069341    -1.387105     1.499854
 C     2.491015     0.373737    -0.723267
 P     1.662141    -0.640162     0.565903
 P    -1.606390    -0.426083    -0.763948
 C    -0.757383    -2.571383     1.423084
 O    -1.230281    -2.898116     2.419149
 C    -0.843562     2.284467    -1.233172
 H    -1.279023     2.537705    -0.266560
 C    -0.361202     0.713262    -2.986472
 H    -0.395462    -0.301697    -3.390053
 C    -0.157760     3.279424    -1.929279
 H    -0.068798     4.287095    -1.519496
 C     0.312082     1.697225    -3.700165
 H     0.772630     1.474922    -4.664056
 C     0.430378     2.975954    -3.153435
Cl     1.339130     4.188407    -3.992589
 H    -2.591872    -1.358262    -2.741234
 H    -3.647041    -0.102955    -2.059205
 C    -3.831397    -2.074629    -1.119735
 H    -3.126273    -2.839020    -0.753449
 H    -4.335191    -1.668088    -0.223457
 C    -4.880739    -2.747060    -2.007365
 H    -4.352986    -3.142112    -2.896136
 C    -5.510351    -3.926570    -1.275697
 H    -4.748142    -4.654753    -0.957768
 H    -6.237464    -4.453891    -1.912477
 H    -6.044061    -3.587331    -0.372039
 C    -5.947251    -1.769580    -2.488717
 H    -6.697877    -2.276388    -3.114813
 H    -5.520110    -0.949630    -3.085523
 H    -6.478312    -1.319328    -1.632656
 H    -1.604021     0.907194     1.207869
 H    -2.690186    -0.449181     1.348550
 C    -3.601220     1.306921     0.436663
 H    -3.445164     1.901392    -0.479278
 H    -4.509941     0.707768     0.248675
 C    -3.864758     2.267686     1.600801
 H    -2.949130     2.875599     1.737029
 C    -5.010228     3.214837     1.267055
 H    -4.815325     3.772676     0.337552
 H    -5.171934     3.947470     2.072721
 H    -5.952307     2.658121     1.129678
 C    -4.119025     1.533581     2.912195
 H    -4.295880     2.244994     3.732779
 H    -3.263615     0.906663     3.204757
 H    -5.005413     0.881540     2.831975
 C     0.486360     0.153421     2.975679
 H     0.535044    -0.906045     3.237958
 C     0.940895     1.969387     1.469827
 H     1.359764     2.364918     0.544536
 C    -0.175079     1.018477     3.839451
 H    -0.618748     0.652470     4.766698
 C     0.273802     2.848983     2.321356
 H     0.185064     3.907774     2.071388
 C    -0.297016     2.365311     3.494932
Cl    -1.184232     3.439786     4.523752
 H     2.628915    -1.887544     2.378390
 H     3.713861    -0.576866     1.876176
 C     3.839056    -2.394799     0.659248
 H     3.115443    -3.100375     0.220920
 H     4.318383    -1.881407    -0.194738
 C     4.910346    -3.179261     1.419679
 H     4.410557    -3.675856     2.273065
 C     5.497545    -4.265555     0.525901
 H     4.714237    -4.939915     0.146502
 H     6.238006    -4.875671     1.066047
 H     6.005594    -3.821718    -0.346755
 C     6.006977    -2.277940     1.976065
 H     6.773419    -2.864527     2.505932
 H     5.613984    -1.533685     2.684960
 H     6.511790    -1.730683     1.161637
 H     1.687825     0.984518    -1.166480
 H     2.755540    -0.346563    -1.511834
 C     3.682710     1.234076    -0.320639
 H     3.533403     1.653901     0.688515
 H     4.588718     0.606218    -0.248165
 C     3.947923     2.390100    -1.290577
 H     3.033121     3.013989    -1.312822
 C     5.094955     3.259308    -0.791248
 H     4.900756     3.639821     0.223957
 H     5.257810     4.125532    -1.450914
 H     6.036211     2.685539    -0.757069
 C     4.199858     1.906984    -2.713978
 H     4.369029     2.756075    -3.393110
 H     3.345820     1.338085    -3.110542
 H     5.089791     1.256192    -2.756131
