 104
scf done:    -2315.119242
 C     0.782966    -3.111929    -1.671968
 H     0.159465    -3.972243    -1.407140
 H     0.667912    -2.787540    -2.710388
 C     2.030069    -2.929569    -1.011902
 H     2.341780    -3.650600    -0.249230
 H     2.862007    -2.462661    -1.546374
 H     1.139054    -0.631231    -1.549832
Rh     0.614745    -1.469865    -0.301979
 C    -1.087445     1.328206    -1.486625
 C    -2.431614    -1.135307    -2.049763
 C    -2.490680    -0.050099     0.634652
 C     0.561721     0.933166     2.231002
 C     3.108035    -0.282029     2.017197
 C     2.231180     1.679733     0.041016
 P     1.662897     0.185657     0.957834
 P    -1.350251    -0.343806    -0.780234
 C    -0.034157    -2.556400     1.117326
 O    -0.451487    -3.235568     1.947048
 C    -1.390214     2.509651    -0.803456
 H    -1.876464     2.474725     0.172212
 C    -0.445828     1.435149    -2.730337
 H    -0.164803     0.528944    -3.273024
 C    -1.049362     3.753165    -1.338947
 H    -1.287484     4.660283    -0.776015
 C    -0.125396     2.674775    -3.266895
 H     0.376600     2.725249    -4.237586
 C    -0.410165     3.861903    -2.575646
 C    -0.009176     5.191762    -3.141952
 H     1.088351     5.300675    -3.149277
 H    -0.350699     5.304753    -4.182438
 H    -0.422840     6.023499    -2.554854
 H    -3.271512    -0.463900    -2.295113
 H    -1.812994    -1.228101    -2.957263
 C    -2.919161    -2.509482    -1.615612
 H    -2.051585    -3.099000    -1.274301
 H    -3.584344    -2.411876    -0.739232
 C    -3.650510    -3.264599    -2.716179
 H    -2.981168    -3.368173    -3.589623
 H    -4.511426    -2.666742    -3.067757
 C    -4.132948    -4.642626    -2.285324
 H    -3.268143    -5.231018    -1.931214
 H    -4.797704    -4.535470    -1.409685
 C    -4.854629    -5.402660    -3.386245
 H    -5.190224    -6.393546    -3.044489
 H    -4.200571    -5.556388    -4.259701
 H    -5.743463    -4.852587    -3.735550
 H    -2.558403    -1.015773     1.161972
 H    -1.934523     0.602050     1.327136
 C    -3.879208     0.510216     0.357635
 H    -3.823993     1.340996    -0.366319
 H    -4.506955    -0.261012    -0.120726
 C    -4.553198     1.000051     1.632813
 H    -3.920019     1.782746     2.090230
 H    -4.579733     0.176896     2.370271
 C    -5.958976     1.543964     1.427246
 H    -5.926409     2.357276     0.680643
 H    -6.592532     0.756470     0.982093
 C    -6.596855     2.051305     2.710596
 H    -7.610850     2.442426     2.537376
 H    -5.999760     2.862481     3.158481
 H    -6.674143     1.248707     3.461935
 C     0.014455     0.093409     3.214360
 H     0.308978    -0.957866     3.259489
 C     0.141702     2.266905     2.210692
 H     0.543170     2.962755     1.473672
 C    -0.930568     0.561646     4.117453
 H    -1.342323    -0.122908     4.864423
 C    -0.819673     2.729969     3.110991
 H    -1.138320     3.775292     3.060050
 C    -1.383971     1.888030     4.071885
 C    -2.455388     2.368427     5.005425
 H    -2.516919     3.465768     5.019836
 H    -3.443049     1.984215     4.699323
 H    -2.278704     2.021218     6.034597
 H     3.529993     0.635659     2.463008
 H     2.679872    -0.867123     2.848619
 C     4.169620    -1.110836     1.311379
 H     3.670692    -1.941971     0.787799
 H     4.656594    -0.512129     0.523620
 C     5.232079    -1.653559     2.256220
 H     4.744726    -2.262913     3.039505
 H     5.720109    -0.817136     2.789834
 C     6.290760    -2.491244     1.552395
 H     5.794403    -3.318161     1.014521
 H     6.775109    -1.878470     0.771393
 C     7.346293    -3.049848     2.492758
 H     8.095841    -3.649182     1.953905
 H     6.893805    -3.696902     3.261524
 H     7.881441    -2.242356     3.018343
 H     1.309121     2.149284    -0.339507
 H     2.684574     2.381868     0.762077
 C     3.160540     1.434153    -1.137588
 H     4.133237     1.044967    -0.793165
 H     2.721011     0.645156    -1.771028
 C     3.378016     2.694637    -1.962927
 H     3.861812     3.470222    -1.340892
 H     2.391640     3.104696    -2.242864
 C     4.199277     2.468750    -3.223546
 H     5.189899     2.064454    -2.949689
 H     3.714582     1.682693    -3.829305
 C     4.370501     3.726664    -4.059820
 H     4.963053     3.538167    -4.967953
 H     4.879391     4.520558    -3.489407
 H     3.393993     4.127831    -4.378116
