  68
scf done:    -1843.717845
 C     2.432196    -2.770188     0.326701
 H     2.925714    -3.127552    -0.582603
 H     3.118038    -2.339781     1.062979
 C     1.245276    -3.409842     0.763660
 H     0.842611    -4.243495     0.180526
 H     1.017059    -3.461955     1.831046
 H     1.026934    -0.992987     1.445646
Rh     0.764586    -1.466027    -0.052932
 C     1.179911     1.969032     0.541679
 C     3.654525     0.510164    -0.137486
 C     1.825152     1.251220    -2.180813
 C    -2.411048     0.140455    -0.691375
 C    -2.660083    -2.272944     0.862058
 C    -1.502360     0.136889     2.051671
 P    -1.449668    -0.898411     0.516411
 P     1.828325     0.561785    -0.458117
 C     0.491188    -2.118783    -1.818603
 O     0.354871    -2.544538    -2.877279
 C     0.199554     2.778273    -0.055546
 H    -0.075181     2.620346    -1.098536
 C     1.472741     2.162678     1.912428
 C     2.442463     1.309973     2.678330
 H     3.487134     1.553120     2.432717
 H     2.284643     0.241907     2.460760
 H     2.314042     1.460127     3.759001
 C    -0.472094     3.767758     0.654548
 H    -1.236909     4.366826     0.155292
 C     0.793946     3.174268     2.605006
 H     1.022324     3.320453     3.664402
 C    -0.167476     3.974458     1.996224
 H    -0.683107     4.746402     2.572204
 H     3.782042     0.006964     0.828789
 C     4.409667    -0.262345    -1.209468
 H     4.465278     0.286951    -2.160531
 H     3.926182    -1.230802    -1.405611
 H     4.043615     1.535911    -0.029202
 H     5.442291    -0.461670    -0.885329
 H     0.776329     1.368476    -2.487541
 C     2.603082     2.535977    -2.417374
 H     3.674697     2.413515    -2.202218
 H     2.231514     3.356260    -1.785716
 H     2.211102     0.427078    -2.802669
 H     2.515034     2.855490    -3.467663
 C    -1.715973     0.482202    -1.856885
 H    -0.707593     0.084047    -1.970745
 C    -3.738651     0.611797    -0.538379
 C    -4.667196     0.228403     0.581358
 H    -4.178241     0.174786     1.560489
 H    -5.113076    -0.760975     0.391733
 H    -5.493719     0.948430     0.657220
 C    -2.260732     1.296408    -2.845012
 H    -1.681795     1.533703    -3.741090
 C    -4.264142     1.448446    -1.533219
 H    -5.282651     1.826758    -1.408118
 C    -3.545180     1.798860    -2.671922
 H    -3.996376     2.450876    -3.423811
 H    -3.197727    -2.439990    -0.085756
 C    -2.044328    -3.573595     1.344890
 H    -1.471837    -3.437865     2.273569
 H    -1.352924    -3.980016     0.596096
 H    -3.404026    -1.907168     1.585843
 H    -2.830417    -4.320714     1.537381
 H    -2.489269     0.608194     2.157676
 C    -1.127896    -0.611573     3.319316
 H    -0.158106    -1.119402     3.202863
 H    -1.878994    -1.370690     3.588255
 H    -0.789288     0.950952     1.860847
 H    -1.045781     0.086413     4.166814
