  78
scf done:    -4410.668619
 C    -0.662565    -0.078962    -3.508198
 H    -1.283555    -0.898874    -3.883008
 H    -1.133701     0.904952    -3.579035
 C     0.744396    -0.200570    -3.543372
 H     1.195304    -1.114400    -3.941881
 H     1.374053     0.688468    -3.634204
 H     0.261718     1.162068    -1.454714
Rh     0.070607    -0.425364    -1.497155
 C    -1.690777     0.615791     1.467943
 C    -2.937942     1.302682    -0.991398
 C    -3.003908    -1.390124    -0.081893
 C     2.629273    -1.834953     0.545409
 C     3.454402     0.284572    -1.157456
 C     1.973843     0.858973     1.215230
 P     1.985758    -0.292355    -0.219595
 P    -1.840522     0.019999    -0.262255
 C    -0.074415    -2.320349    -1.620100
 O    -0.145608    -3.458940    -1.731648
 C    -0.861032    -0.101299     2.340913
 H    -0.324142    -0.978393     1.974544
 C    -2.340479     1.758360     1.946757
 H    -2.990324     2.335411     1.286242
 C    -0.693779     0.293213     3.661591
 H    -0.045168    -0.255491     4.345888
 C    -2.164859     2.179922     3.263968
 H    -2.655980     3.075946     3.647616
 C    -1.344354     1.440247     4.104895
 F    -1.170573     1.836702     5.360918
 C    -2.364446     2.432009    -1.588050
 H    -1.275728     2.502029    -1.656487
 C    -4.333698     1.208039    -0.936496
 H    -4.805333     0.336505    -0.477460
 C    -3.157205     3.451250    -2.105032
 H    -2.707644     4.330583    -2.569010
 C    -5.139740     2.215101    -1.461058
 H    -6.227466     2.137668    -1.422008
 C    -4.545709     3.335105    -2.040262
Cl    -5.540628     4.591167    -2.692351
 C    -3.595360    -1.753328     1.132115
 H    -3.376256    -1.185820     2.038853
 C    -3.313309    -2.130175    -1.231504
 H    -2.855022    -1.856785    -2.185546
 C    -4.469495    -2.836580     1.203271
 H    -4.926508    -3.123933     2.151598
 C    -4.193875    -3.203281    -1.176851
 H    -4.435095    -3.776948    -2.072995
 C    -4.765350    -3.555043     0.047256
Cl    -5.851373    -4.899367     0.128278
 C     3.999936    -2.095743     0.676956
 H     4.729917    -1.384220     0.284735
 C     1.717014    -2.769949     1.050559
 H     0.645017    -2.595534     0.932384
 C     4.449851    -3.256091     1.301259
 H     5.514393    -3.473870     1.404744
 C     2.150733    -3.929329     1.684985
 H     1.446911    -4.665593     2.076745
 C     3.517095    -4.157310     1.801066
 F     3.941549    -5.266216     2.397974
 C     3.829717    -0.439247    -2.297752
 H     3.249728    -1.317145    -2.592739
 C     4.194275     1.415670    -0.802812
 H     3.920841     1.993215     0.082670
 C     4.926411    -0.055695    -3.058863
 H     5.222336    -0.622905    -3.942742
 C     5.287269     1.821153    -1.567763
 H     5.862489     2.707085    -1.294068
 C     5.649472     1.080713    -2.689764
Cl     7.008662     1.573645    -3.641096
 C     2.656363     0.583425     2.405542
 H     3.237112    -0.335712     2.504761
 C     1.234166     2.044582     1.125529
 H     0.680809     2.257210     0.208540
 C     2.592883     1.460052     3.485729
 H     3.113659     1.237477     4.418432
 C     1.168656     2.932718     2.191958
 H     0.578175     3.847243     2.123215
 C     1.841573     2.628230     3.374635
Cl     1.718015     3.701081     4.724826
