  82
scf done:    -3270.341199
 C     0.765567    -3.563795     0.607836
 H     1.526156    -3.939048    -0.082407
 H     1.080255    -3.520367     1.653451
 C    -0.599727    -3.668641     0.289802
 H    -0.910167    -4.130037    -0.651688
 H    -1.348820    -3.705139     1.083276
 H    -0.349183    -1.408473     1.500146
Rh     0.045937    -1.598409    -0.027437
 C     1.772063     0.858437     1.959146
 O     3.272646    -0.888431     0.779126
 O     2.105685     0.842229    -0.730659
 C    -1.931313     0.667536    -1.903711
 O    -3.281235    -1.113529    -0.575022
 O    -2.130164     0.733562     0.788544
 P    -1.792343    -0.376777    -0.428894
 P     1.756458    -0.239623     0.517705
 C     0.476127    -1.896268    -1.882608
 O     0.707167    -2.078275    -2.986947
 C     0.550485     1.358233     2.423900
 H    -0.386185     1.017022     1.976942
 C     2.967833     1.289800     2.551150
 H     3.920684     0.894138     2.197623
 C     0.518416     2.294148     3.453904
 H    -0.423759     2.697492     3.829143
 C     2.944118     2.218872     3.584128
 H     3.861534     2.570558     4.059189
 C     1.717681     2.713450     4.017074
 F     1.694180     3.607031     5.000224
 C     3.756229    -1.947165     0.062767
 C     4.335797    -3.000868     0.770272
 H     4.367672    -2.948608     1.859738
 C     3.695212    -1.985023    -1.331425
 H     3.251747    -1.152193    -1.878872
 C     4.846733    -4.099461     0.087646
 H     5.301604    -4.938007     0.617776
 C     4.193178    -3.090769    -2.017679
 H     4.143690    -3.148897    -3.106269
 C     4.761892    -4.135142    -1.300535
 F     5.241522    -5.191973    -1.954532
 C     2.968067     1.899006    -0.582757
 C     4.343029     1.719860    -0.736023
 H     4.736222     0.728261    -0.964749
 C     2.449084     3.160585    -0.289325
 H     1.370880     3.274322    -0.164328
 C     5.202323     2.805982    -0.588193
 H     6.282158     2.695976    -0.702292
 C     3.303356     4.248359    -0.141780
 H     2.924160     5.244382     0.092741
 C     4.672287     4.055646    -0.290126
 F     5.494426     5.093364    -0.144954
 C    -0.760486     1.276418    -2.372948
 H     0.201270     1.052723    -1.901799
 C    -3.157113     0.954007    -2.519030
 H    -4.067835     0.475611    -2.156228
 C    -0.810861     2.174474    -3.434926
 H     0.089139     2.660438    -3.815569
 C    -3.215112     1.845074    -3.583961
 H    -4.157228     2.085585    -4.079622
 C    -2.040161     2.447225    -4.023566
 F    -2.095850     3.303630    -5.037677
 C    -3.677749    -2.136404     0.242768
 C    -4.266625    -3.250969    -0.354120
 H    -4.370477    -3.273240    -1.440162
 C    -3.521754    -2.078811     1.629686
 H    -3.051763    -1.208089     2.088706
 C    -4.700003    -4.314236     0.431185
 H    -5.161166    -5.198573    -0.011930
 C    -3.947048    -3.146431     2.417177
 H    -3.829297    -3.130665     3.502034
 C    -4.530455    -4.251190     1.809927
 F    -4.939118    -5.270824     2.563725
 C    -3.039343     1.749607     0.629443
 C    -4.401632     1.519370     0.821437
 H    -4.748024     0.520261     1.089580
 C    -2.578480     3.021443     0.287952
 H    -1.508756     3.175153     0.136693
 C    -5.307546     2.565409     0.663470
 H    -6.379039     2.415660     0.807036
 C    -3.479838     4.069109     0.130124
 H    -3.147129     5.072393    -0.141104
 C    -4.835978     3.825840     0.316674
 F    -5.702886     4.824883     0.161725
