  78
scf done:    -3690.114183
 C    -0.708276     0.362461    -3.914337
 H    -1.178824    -0.507173    -4.383536
 H    -1.331779     1.260644    -3.908061
 C     0.702244     0.472327    -3.923851
 H     1.296422    -0.307406    -4.410082
 H     1.175601     1.457823    -3.933137
 H    -0.108476     1.524257    -1.774463
Rh     0.026684    -0.054121    -1.932450
 C    -1.644881     1.093649     0.945291
 C    -3.323622     0.755103    -1.348369
 C    -2.487554    -1.506767     0.163315
 C     1.724481    -0.980959     0.963344
 C     3.492620    -0.469677    -1.192309
 C     2.318523     1.737375     0.174821
 P     1.875719     0.094986    -0.516709
 P    -1.829685     0.047745    -0.557005
 C     0.094721    -1.945903    -2.180056
 O     0.115881    -3.082292    -2.331991
 C    -2.119444     0.699951     2.202155
 H    -2.674959    -0.233687     2.309460
 C    -0.937580     2.298240     0.842561
 H    -0.554323     2.610474    -0.130487
 C    -1.863412     1.469773     3.334676
 H    -2.219989     1.154515     4.316768
 C    -0.678602     3.079943     1.962672
 H    -0.106814     4.005277     1.877021
 C    -1.131193     2.650249     3.210445
Cl    -0.774280     3.589940     4.618535
 C    -3.752837     0.187622    -2.556418
 H    -3.184789    -0.637474    -2.992245
 C    -4.049095     1.820137    -0.805450
 H    -3.733125     2.272882     0.136636
 C    -4.887216     0.660962    -3.204575
 H    -5.235385     0.226179    -4.143174
 C    -5.179782     2.315318    -1.453627
 H    -5.753010     3.149740    -1.045605
 C    -5.584903     1.726773    -2.643973
 F    -6.664841     2.192403    -3.265711
 C    -3.858390    -1.752101     0.314339
 H    -4.587153    -1.025110    -0.050402
 C    -1.574362    -2.456436     0.639429
 H    -0.503406    -2.283096     0.522776
 C    -4.308632    -2.917272     0.930122
 H    -5.373237    -3.126422     1.049578
 C    -2.009362    -3.615092     1.273466
 H    -1.304399    -4.348184     1.669032
 C    -3.376055    -3.830949     1.407621
 F    -3.803179    -4.939399     2.004944
 C     2.145115    -2.315926     0.887581
 H     2.705079    -2.663108     0.015933
 C     1.009207    -0.568023     2.095880
 H     0.659373     0.461552     2.180822
 C     1.842124    -3.221559     1.900227
 H     2.160430    -4.262995     1.830816
 C     0.707681    -1.462002     3.118228
 H     0.137249    -1.135470     3.988966
 C     1.113926    -2.790516     3.008182
Cl     0.684469    -3.925111     4.243253
 C     3.535509    -1.120334    -2.428013
 H     2.608031    -1.246670    -2.988614
 C     4.687220    -0.289496    -0.480745
 H     4.679903     0.223483     0.483329
 C     4.738218    -1.594845    -2.948022
 H     4.784529    -2.105180    -3.911597
 C     5.895377    -0.752416    -0.987631
 H     6.834000    -0.617368    -0.447227
 C     5.903473    -1.402627    -2.218662
 F     7.057743    -1.846569    -2.706157
 C     2.855002     1.923335     1.455261
 H     3.015353     1.068379     2.115070
 C     2.135046     2.858152    -0.645105
 H     1.706501     2.721446    -1.641175
 C     3.174463     3.196517     1.920269
 H     3.575448     3.355039     2.922832
 C     2.461908     4.134659    -0.200322
 H     2.320447     5.014733    -0.830239
 C     2.970996     4.287718     1.084918
 F     3.266256     5.506842     1.524977
