  84
scf done:    -2849.734746
 C    -0.529548    -3.054497    -1.590950
 H    -1.106924    -3.794421    -1.029117
 H    -1.008342    -2.734142    -2.520403
 C     0.875226    -3.028468    -1.465301
 H     1.372958    -3.746822    -0.808506
 H     1.498689    -2.671604    -2.289294
 H     0.212135    -0.635852    -1.775057
Rh     0.049045    -1.353982    -0.370749
 C    -1.990884     1.441545    -1.251775
 C    -3.466763    -0.962877    -0.706118
 C    -2.411153     0.484805     1.444589
 C     2.290631     0.436756     1.834097
 C     3.458830    -1.207905    -0.236520
 C     2.376436     1.371369    -0.843196
 P     1.987855    -0.152231     0.103790
 P    -1.914160    -0.094346    -0.233865
 C    -0.070210    -2.309872     1.275825
 O    -0.102189    -2.933121     2.239303
 C    -1.983677     2.690958    -0.616483
 H    -2.034734     2.738563     0.471811
 C    -1.942956     1.386411    -2.666108
 C    -1.989641     0.100796    -3.438107
 H    -3.028544    -0.232988    -3.590435
 H    -1.463934    -0.705912    -2.909362
 H    -1.529837     0.224919    -4.428653
 C    -1.907063     3.876231    -1.342041
 H    -1.892947     4.834215    -0.817560
 C    -1.873230     2.592844    -3.373964
 H    -1.835570     2.552842    -4.466332
 C    -1.848808     3.827327    -2.731034
 H    -1.786734     4.747958    -3.316197
 C    -4.527210    -0.328053    -1.363647
 H    -4.431656     0.717559    -1.668224
 C    -3.616074    -2.300602    -0.322701
 H    -2.792173    -2.802896     0.188566
 C    -5.707643    -1.012804    -1.643259
 H    -6.539541    -0.532719    -2.161856
 C    -4.792816    -2.994506    -0.584284
 H    -4.921767    -4.037068    -0.288291
 C    -5.824289    -2.339669    -1.247656
 F    -6.949086    -2.999398    -1.511990
 C    -1.505129     0.378068     2.502516
 H    -0.509651    -0.026851     2.314830
 C    -3.686464     1.009856     1.702972
 H    -4.419839     1.088651     0.897540
 C    -1.841923     0.794330     3.788268
 H    -1.131952     0.716350     4.613494
 C    -4.039760     1.430864     2.979437
 H    -5.028588     1.839603     3.195076
 C    -3.108137     1.317672     4.008262
 F    -3.445299     1.719171     5.230701
 C     3.138449    -0.274394     2.693917
 H     3.700338    -1.129047     2.316663
 C     1.597902     1.565685     2.332412
 C     0.709335     2.418009     1.478126
 H     0.191916     1.827621     0.711390
 H     1.287858     3.187625     0.942968
 H    -0.047533     2.924754     2.092400
 C     3.294563     0.091776     4.027822
 H     3.961968    -0.484243     4.672824
 C     1.768416     1.913304     3.677808
 H     1.226120     2.781588     4.062572
 C     2.600501     1.189745     4.526472
 H     2.708872     1.487087     5.572192
 C     3.517380    -2.484188     0.345784
 H     2.707258    -2.819266     0.997427
 C     4.481909    -0.832690    -1.113669
 H     4.453715     0.141565    -1.603485
 C     4.581179    -3.343212     0.098790
 H     4.635433    -4.332923     0.555625
 C     5.544543    -1.692547    -1.389278
 H     6.341697    -1.409003    -2.078825
 C     5.586135    -2.933928    -0.771845
 F     6.600884    -3.756587    -1.024631
 C     3.445906     2.191531    -0.453083
 H     4.064466     1.908759     0.402799
 C     1.582763     1.764879    -1.922231
 H     0.733820     1.142315    -2.211123
 C     3.719238     3.375229    -1.129482
 H     4.545329     4.025927    -0.837041
 C     1.838721     2.951016    -2.605172
 H     1.208406     3.274824    -3.434707
 C     2.905921     3.740261    -2.198973
 F     3.155807     4.878983    -2.840153
