  96
scf done:    -2610.106449
 C    -0.515629    -0.643582     3.347975
 H    -1.019645     0.130474     3.933708
 H    -1.071213    -1.583635     3.289195
 C     0.890784    -0.634431     3.242780
 H     1.472968     0.146333     3.739856
 H     1.439403    -1.567082     3.086323
 H     0.077689    -1.478029     1.024228
Rh     0.048311     0.065635     1.374212
 C    -2.210782    -1.342457    -1.040837
 C    -3.487033    -0.073491     1.195907
 C    -2.366080     1.539202    -0.794871
 C     2.363576     1.488678    -1.075184
 C     3.443545     0.118390     1.224028
 C     2.393888    -1.328224    -1.012096
 P     1.992662     0.093918     0.086488
 P    -1.954668     0.022083     0.174317
 C     0.042760     1.903898     1.878049
 O     0.061251     2.998092     2.227965
 C    -2.284507    -1.041790    -2.407635
 H    -2.252865     0.000212    -2.727769
 C    -2.269942    -2.696516    -0.629121
 C    -2.234904    -3.117143     0.809765
 H    -3.212401    -2.963177     1.293928
 H    -1.502361    -2.526883     1.378893
 H    -1.977220    -4.181836     0.898470
 C    -2.400365    -2.041385    -3.369274
 H    -2.448771    -1.774018    -4.427336
 C    -2.399249    -3.682797    -1.614451
 H    -2.449870    -4.728449    -1.298193
 C    -2.460506    -3.372467    -2.970056
 H    -2.557642    -4.170504    -3.710309
 C    -3.532318     0.665537     2.380606
 H    -2.650841     1.226247     2.697637
 C    -4.620915    -0.789758     0.796352
 H    -4.595403    -1.364002    -0.134586
 C    -4.696478     0.685508     3.144608
 H    -4.729957     1.270953     4.066688
 C    -5.791630    -0.792621     1.561460
 C    -6.987248    -1.595648     1.136363
 H    -7.917980    -1.017331     1.239285
 H    -6.901272    -1.922377     0.090402
 H    -7.097619    -2.499554     1.758103
 C    -5.814236    -0.040802     2.742332
 H    -6.721275    -0.025372     3.353347
 C    -3.652939     1.760960    -1.306566
 H    -4.436251     1.012668    -1.169175
 C    -1.389212     2.519766    -0.966779
 H    -0.385071     2.338190    -0.577026
 C    -3.933968     2.942677    -1.982028
 H    -4.935552     3.112418    -2.385006
 C    -1.665395     3.730325    -1.616894
 C    -0.615444     4.798276    -1.702176
 H    -0.539946     5.339218    -0.744335
 H     0.375549     4.370708    -1.909632
 H    -0.849088     5.535786    -2.483400
 C    -2.949970     3.921458    -2.131170
 H    -3.188509     4.855779    -2.647293
 C     3.309453     2.471655    -0.755879
 H     3.864248     2.405053     0.180482
 C     1.671382     1.573696    -2.305662
 C     0.667232     0.550418    -2.738477
 H     0.133203     0.118302    -1.882041
 H     1.152994    -0.288861    -3.261313
 H    -0.072363     0.996280    -3.417584
 C     3.577314     3.528684    -1.622054
 H     4.321468     4.279397    -1.346106
 C     1.962813     2.640108    -3.163851
 H     1.426160     2.704054    -4.114578
 C     2.903206     3.612578    -2.836532
 H     3.105522     4.433783    -3.528318
 C     3.519793     1.130705     2.194070
 H     2.742913     1.896663     2.248077
 C     4.423002    -0.875993     1.215030
 H     4.369320    -1.681191     0.479478
 C     4.576152     1.157521     3.095751
 H     4.634814     1.957763     3.837558
 C     5.480593    -0.876004     2.136240
 C     6.494482    -1.983199     2.117086
 H     6.073384    -2.909248     2.542192
 H     6.814045    -2.216465     1.090182
 H     7.387084    -1.724441     2.703981
 C     5.551764     0.159887     3.068743
 H     6.374131     0.182866     3.789002
 C     3.483963    -1.241389    -1.890522
 H     4.088617    -0.331809    -1.924188
 C     1.625378    -2.490622    -0.992647
 H     0.764926    -2.538073    -0.319871
 C     3.790622    -2.313778    -2.720669
 H     4.642159    -2.247005    -3.402391
 C     1.920304    -3.578109    -1.825201
 C     1.054841    -4.803577    -1.813353
 H     0.651990    -4.999797    -0.809228
 H     0.190681    -4.671588    -2.484278
 H     1.608326    -5.693302    -2.146620
 C     3.015738    -3.473515    -2.686704
 H     3.264591    -4.311202    -3.344480
