  94
scf done:    -3030.583331
 C     0.543811    -0.731723     3.605709
 H     1.065540    -1.659522     3.861114
 H     1.092104     0.176899     3.869335
 C    -0.870997    -0.725995     3.556980
 H    -1.420894    -1.645483     3.779207
 H    -1.426063     0.187018     3.788709
 H    -0.091121     0.913184     1.812630
Rh    -0.086888    -0.655967     1.545243
 C     1.557435     1.459164    -0.731616
 C     3.222145     0.486644     1.373943
 C     2.578659    -1.210270    -0.797749
 C    -1.997430    -1.028311    -1.433593
 C    -3.564102    -0.616750     0.897209
 C    -2.167829     1.579190    -0.242410
 P    -1.926390    -0.183690     0.197848
 P     1.787398    -0.014801     0.347459
 C    -0.058596    -2.549097     1.325319
 O    -0.051874    -3.694257     1.241049
 C     1.840991     1.447049    -2.101804
 H     2.266975     0.552450    -2.561358
 C     1.027895     2.629033    -0.166057
 H     0.783007     2.648245     0.898267
 C     1.575777     2.561631    -2.898642
 H     1.772224     2.556257    -3.972296
 C     0.794303     3.758592    -0.939707
 H     0.381954     4.671153    -0.507262
 C     1.054114     3.700194    -2.303545
 F     0.779188     4.766393    -3.062398
 C     3.953911     1.666774     1.182083
 H     3.664748     2.367146     0.395694
 C     3.630370    -0.387171     2.385330
 H     3.066155    -1.307881     2.551716
 C     5.050657     1.962669     1.980358
 H     5.621514     2.882767     1.841289
 C     4.735789    -0.109813     3.184870
 H     5.022162    -0.818723     3.962030
 C     5.452956     1.077550     2.988683
 O     6.526983     1.445611     3.714005
 C     6.970256     0.602885     4.740144
 H     7.276417    -0.386644     4.356833
 H     7.841508     1.091431     5.194593
 H     6.197821     0.458210     5.516026
 C     1.811652    -2.224878    -1.387405
 H     0.755544    -2.318665    -1.130787
 C     3.932621    -1.125241    -1.137575
 H     4.558077    -0.352922    -0.683203
 C     2.368632    -3.108782    -2.298321
 H     1.771524    -3.897208    -2.760065
 C     4.509815    -2.011583    -2.044874
 H     5.570289    -1.916729    -2.279572
 C     3.725417    -3.010647    -2.636249
 O     4.186625    -3.911961    -3.522692
 C     5.536853    -3.871284    -3.891053
 H     6.203785    -4.029102    -3.025226
 H     5.691239    -4.685388    -4.610399
 H     5.802761    -2.914109    -4.373510
 C    -2.984698    -1.965988    -1.757437
 H    -3.788802    -2.176515    -1.049689
 C    -0.979437    -0.778565    -2.365125
 H    -0.195311    -0.057112    -2.128051
 C    -2.957198    -2.640554    -2.976985
 H    -3.718268    -3.378381    -3.237427
 C    -0.949007    -1.430769    -3.592502
 H    -0.157957    -1.240911    -4.320156
 C    -1.940594    -2.362093    -3.880677
 F    -1.912290    -3.001826    -5.048690
 C    -4.733415     0.080739     0.553809
 H    -4.673820     0.942231    -0.115725
 C    -3.674074    -1.709843     1.757596
 H    -2.770836    -2.253491     2.042055
 C    -5.965266    -0.305629     1.056946
 H    -6.878863     0.234808     0.801947
 C    -4.908095    -2.117779     2.262659
 H    -4.951906    -2.977343     2.931679
 C    -6.065116    -1.410833     1.915747
 O    -7.300900    -1.712151     2.355856
 C    -7.464113    -2.801908     3.220060
 H    -6.904865    -2.665906     4.162437
 H    -8.535424    -2.864028     3.449224
 H    -7.144029    -3.749319     2.751567
 C    -2.200732     2.510814     0.809871
 H    -2.087086     2.160198     1.839059
 C    -2.316085     2.052844    -1.544824
 H    -2.321181     1.355997    -2.384482
 C    -2.351824     3.863275     0.562614
 H    -2.368601     4.592041     1.375334
 C    -2.442004     3.417704    -1.811202
 H    -2.519329     3.750731    -2.846118
 C    -2.443591     4.333813    -0.757143
 O    -2.501369     5.670413    -0.910479
 C    -2.466685     6.197548    -2.210455
 H    -3.351045     5.896428    -2.798977
 H    -2.468397     7.289811    -2.105790
 H    -1.553550     5.886289    -2.746159
