  74
scf done:    -2841.234035
 C     3.797874    -0.062797    -1.622898
 H     4.495027    -0.784219    -1.184738
 H     3.562804    -0.256922    -2.673393
 C     3.785033     1.272743    -1.134900
 H     4.467975     1.557065    -0.328085
 H     3.537847     2.090368    -1.817532
 H     1.413734     0.759479    -1.830311
Rh     2.024733     0.240655    -0.450198
 C    -0.977840    -1.066609    -1.629867
 C     1.222983    -2.866044    -1.949467
 C     0.060857    -2.476995     0.681999
 C    -0.535487     0.989464     1.777274
 C     1.213107     3.208508     1.402834
 C    -0.660680     2.495204    -0.697828
 P     0.532597     1.752689     0.490429
 P     0.597282    -1.548598    -0.817799
 C     2.817555    -0.397693     1.156656
 O     3.297087    -0.806545     2.118682
 C    -2.223423    -1.146999    -0.998155
 H    -2.316081    -1.608733    -0.015263
 C    -0.916726    -0.459369    -2.893646
 H     0.047440    -0.356251    -3.397412
 C    -3.367414    -0.605538    -1.583553
 H    -4.331470    -0.653746    -1.074065
 C    -2.049392     0.072651    -3.497286
 H    -1.989106     0.558924    -4.472164
 C    -3.271230     0.015199    -2.825207
Cl    -4.674712     0.745149    -3.530834
 H     0.420251    -3.595365    -2.150755
 H     1.447694    -2.360113    -2.903008
 C     2.476769    -3.546640    -1.416969
 H     2.239230    -4.082096    -0.481485
 H     3.207462    -2.768163    -1.143663
 C     3.091102    -4.515529    -2.414861
 H     2.383300    -5.313579    -2.691064
 H     3.382933    -3.996965    -3.342060
 H     3.992248    -4.996020    -2.004653
 H     0.982975    -2.636429     1.265291
 H    -0.523430    -1.758946     1.281579
 C    -0.690995    -3.791716     0.514850
 H    -0.026458    -4.539587     0.051504
 H    -1.530734    -3.667666    -0.188623
 C    -1.207144    -4.321393     1.845280
 H    -0.379266    -4.491858     2.551862
 H    -1.896415    -3.606728     2.323601
 H    -1.742756    -5.274791     1.721529
 C     0.070182     0.486300     2.939530
 H     1.136432     0.646919     3.115564
 C    -1.899912     0.741830     1.588679
 H    -2.410781     1.113273     0.700412
 C    -0.646236    -0.262984     3.865044
 H    -0.160546    -0.665664     4.755207
 C    -2.631351    -0.014623     2.503257
 H    -3.691127    -0.217500     2.338378
 C    -1.996112    -0.527704     3.630141
Cl    -2.883209    -1.521095     4.737806
 H     0.384024     3.765600     1.871075
 H     1.824763     2.796641     2.222836
 C     2.067293     4.112622     0.525230
 H     1.449305     4.529335    -0.288981
 H     2.837506     3.497580     0.033969
 C     2.714330     5.247315     1.303640
 H     1.959007     5.888481     1.785974
 H     3.372883     4.859407     2.097234
 H     3.324906     5.886433     0.647924
 H    -0.039328     2.833465    -1.542640
 H    -1.236059     1.647039    -1.104792
 C    -1.580773     3.611653    -0.221652
 H    -0.981422     4.504999     0.020480
 H    -2.078600     3.325843     0.719761
 C    -2.627184     3.967148    -1.268541
 H    -2.153366     4.294384    -2.207740
 H    -3.262746     3.100499    -1.513073
 H    -3.284402     4.780167    -0.924718
