  90
scf done:    -3450.467654
 C     0.640298    -3.389338    -1.820867
 H     1.156880    -3.084513    -2.732064
 H     1.232624    -4.036540    -1.166715
 C    -0.771052    -3.469277    -1.828957
 H    -1.309164    -3.241714    -2.752413
 H    -1.286384    -4.191494    -1.187089
 H    -0.214264    -0.967779    -2.168272
Rh    -0.147779    -1.690819    -0.743663
 C    -1.623592     1.498665    -0.510953
 C    -3.522236    -0.483512    -1.191751
 C    -2.507311    -0.461034     1.529273
 C     1.858166     0.354547     1.377857
 C     3.224973    -1.654972    -0.239767
 C     2.383130     0.900905    -1.379819
 P     1.818187    -0.468649    -0.284191
 P    -1.962968    -0.287473    -0.225026
 C    -0.171088    -2.729033     0.851564
 O    -0.226174    -3.453495     1.739733
 C    -0.662167     2.181440     0.245177
 H    -0.177705     1.689862     1.085825
 C    -2.171380     2.153248    -1.623041
 H    -2.913558     1.647420    -2.243330
 C    -0.265157     3.473295    -0.078550
 H     0.494768     3.984124     0.514236
 C    -1.770362     3.440770    -1.969986
 H    -2.192671     3.937080    -2.845361
 C    -0.813974     4.094875    -1.196939
Cl    -0.272321     5.673900    -1.654747
 C    -3.423895    -1.228142    -2.371046
 H    -2.450142    -1.647680    -2.625839
 C    -4.759957     0.101579    -0.834947
 C    -4.957697     0.960781     0.379750
 H    -4.136838     1.679310     0.511775
 H    -5.001331     0.358524     1.300178
 H    -5.897587     1.524267     0.299024
 C    -4.525386    -1.433998    -3.196832
 H    -4.420924    -2.019455    -4.113086
 C    -5.856932    -0.128436    -1.675132
 H    -6.819916     0.315198    -1.407471
 C    -5.753623    -0.888379    -2.837645
 H    -6.634114    -1.042654    -3.466267
 C    -2.261492     0.531900     2.485016
 H    -1.845271     1.490757     2.180464
 C    -3.103251    -1.677715     1.937550
 C    -3.483002    -2.764022     0.974120
 H    -2.751469    -2.871066     0.160047
 H    -4.450918    -2.541039     0.496569
 H    -3.573805    -3.728619     1.492243
 C    -2.555810     0.336209     3.830729
 H    -2.338759     1.128170     4.551536
 C    -3.389822    -1.852723     3.296778
 H    -3.842764    -2.795803     3.614567
 C    -3.116551    -0.869078     4.242527
 H    -3.347626    -1.043399     5.296053
 C     1.250003    -0.281559     2.469110
 H     0.839378    -1.283750     2.362462
 C     2.329124     1.661880     1.567249
 H     2.773596     2.209181     0.735238
 C     1.109577     0.350458     3.699688
 H     0.614126    -0.156700     4.528445
 C     2.184980     2.314812     2.788694
 H     2.537111     3.339955     2.915763
 C     1.567183     1.657239     3.850771
Cl     1.339918     2.475920     5.358411
 C     3.670603    -2.157840     0.988472
 H     3.253759    -1.765678     1.917882
 C     3.777678    -2.156115    -1.439828
 C     3.394132    -1.643196    -2.798106
 H     3.959794    -0.732890    -3.054918
 H     2.329959    -1.377827    -2.855279
 H     3.607935    -2.397583    -3.568313
 C     4.648010    -3.146141     1.052998
 H     4.977794    -3.521396     2.024491
 C     4.760040    -3.149580    -1.348183
 H     5.190742    -3.542051    -2.273701
 C     5.197092    -3.646785    -0.123964
 H     5.963182    -4.424981    -0.091633
 C     1.412580     1.434735    -2.235039
 H     0.420917     0.978038    -2.243375
 C     3.688294     1.450955    -1.375114
 C     4.823936     0.931043    -0.538419
 H     5.280600     0.040459    -0.998447
 H     4.512858     0.628288     0.469071
 H     5.606911     1.696436    -0.442470
 C     1.689024     2.514466    -3.067417
 H     0.906159     2.920225    -3.711278
 C     3.941733     2.537432    -2.223178
 H     4.943959     2.974889    -2.222842
 C     2.962694     3.072318    -3.056324
 H     3.199094     3.926082    -3.695905
