  56
scf done:    -1686.606035
 C     2.735829    -2.313034    -0.854523
 H     3.331460    -2.772795    -0.059519
 H     2.107750    -3.022683    -1.401322
 C     3.229125    -1.159265    -1.522500
 H     4.202798    -0.746801    -1.239365
 H     2.963296    -0.990905    -2.570315
 H     0.707443    -0.870551    -1.448024
Rh     1.646875    -0.576402    -0.190623
 C    -1.809112    -1.476369     0.432346
 C     0.147231    -2.870079     2.019559
 C    -0.420074    -0.171549     2.586828
 C    -0.373524     2.372509    -0.225491
 C     2.465241     2.809066    -0.072614
 C     1.365316     2.032374    -2.527786
 P     1.229393     1.626831    -0.742094
 P    -0.126474    -1.272810     1.148790
 C     2.777229    -0.219064     1.295882
 O     3.438627     0.016589     2.206540
 C    -2.854350    -0.650388     0.867046
 H    -2.677515     0.096022     1.641171
 C    -2.059828    -2.418060    -0.592560
 C    -1.004894    -3.355165    -1.101227
 H    -0.948996    -4.262834    -0.477969
 H    -0.013417    -2.878850    -1.096285
 H    -1.231140    -3.678478    -2.127033
 C    -4.128980    -0.737474     0.313367
 H    -4.921609    -0.076546     0.671966
 C    -3.346204    -2.484552    -1.139317
 H    -3.537632    -3.208168    -1.936644
 C    -4.377273    -1.659349    -0.698444
 H    -5.370658    -1.737549    -1.146879
 H     0.372839    -3.660542     1.293156
 H     1.029660    -2.748952     2.665175
 H    -0.722149    -3.159777     2.629112
 H    -1.215559    -0.538274     3.252921
 H     0.524258    -0.119650     3.148184
 H    -0.659305     0.843351     2.238621
 C    -0.390742     3.269203     0.854921
 H     0.544906     3.568634     1.329191
 C    -1.599901     1.984898    -0.812033
 C    -1.689576     1.012880    -1.951220
 H    -0.930374     0.221053    -1.866310
 H    -1.546868     1.519739    -2.919558
 H    -2.676638     0.530611    -1.968765
 C    -1.581394     3.789266     1.353683
 H    -1.561203     4.482948     2.197532
 C    -2.784443     2.532621    -0.303382
 H    -3.731355     2.229480    -0.757958
 C    -2.788902     3.422926     0.765140
 H    -3.733195     3.825429     1.139610
 H     2.536322     2.721232     1.019950
 H     3.439025     2.512581    -0.488792
 H     2.249819     3.852079    -0.350469
 H     1.106570     3.082997    -2.728677
 H     2.408304     1.844726    -2.821836
 H     0.726303     1.369150    -3.121641
