  94
scf done:    -3751.260344
 C    -0.261264     3.071427    -2.638560
 H    -0.802593     2.851370    -3.563230
 H    -0.810241     3.695754    -1.928417
 C     1.151466     3.076157    -2.628117
 H     1.704721     2.860748    -3.546556
 H     1.693003     3.693382    -1.906793
 H     0.451751     2.163843    -0.368836
Rh     0.440371     1.260488    -1.671504
 C    -1.964757     1.106527     0.847239
 O    -2.714336     0.171439    -1.618681
 O    -1.061894    -1.240446    -0.203572
 C     2.744026    -1.376242    -0.949432
 O     3.585490     1.019158    -0.367899
 O     1.660463     0.062014     1.056440
 P     2.107907     0.275391    -0.544191
 P    -1.356026     0.337278    -0.686675
 C     0.468124     0.209621    -3.288062
 O     0.477522    -0.421179    -4.241865
 C    -1.386057     0.751284     2.070264
 H    -0.632720    -0.037149     2.103909
 C    -2.863317     2.179342     0.800860
 H    -3.302160     2.494552    -0.148175
 C    -1.728563     1.425308     3.238125
 H    -1.279236     1.151337     4.193910
 C    -3.214873     2.857404     1.962634
 H    -3.924361     3.685575     1.933650
 C    -2.649586     2.470024     3.177495
Cl    -3.086288     3.309046     4.627170
 C    -4.056283     0.269948    -1.348191
 C    -4.667382    -0.284300    -0.225052
 H    -4.081814    -0.825184     0.517425
 C    -4.823682     0.962420    -2.286042
 H    -4.322850     1.391843    -3.155852
 C    -6.041881    -0.136331    -0.052438
 H    -6.507557    -0.571755     0.835850
 C    -6.195095     1.095129    -2.099540
 H    -6.783258     1.641082    -2.842575
 C    -6.833548     0.549168    -0.978577
 C    -8.318370     0.674642    -0.796275
 H    -8.609962     0.519390     0.252252
 H    -8.857919    -0.072455    -1.402292
 H    -8.680692     1.665929    -1.107323
 C    -2.006153    -2.195156     0.069675
 C    -2.652275    -2.846893    -0.982610
 H    -2.413049    -2.564932    -2.009176
 C    -2.294497    -2.542708     1.387513
 H    -1.777404    -2.039323     2.204675
 C    -3.607216    -3.817373    -0.706969
 H    -4.118466    -4.311273    -1.537825
 C    -3.252096    -3.523096     1.645865
 H    -3.476320    -3.786609     2.683016
 C    -3.932813    -4.169816     0.610195
 C    -4.982980    -5.205464     0.888614
 H    -4.762506    -6.150323     0.367711
 H    -5.973231    -4.868806     0.541648
 H    -5.060546    -5.422401     1.963067
 C     4.086246    -1.735550    -0.787696
 H     4.808921    -0.985963    -0.462389
 C     1.816444    -2.338369    -1.364337
 H     0.763597    -2.064886    -1.467939
 C     4.497246    -3.041436    -1.031939
 H     5.541115    -3.333162    -0.906669
 C     2.216916    -3.648013    -1.605754
 H     1.497616    -4.404889    -1.921737
 C     3.557848    -3.990212    -1.435536
Cl     4.065448    -5.618838    -1.729337
 C     3.704194     2.376554    -0.222228
 C     4.589836     3.049745    -1.061787
 H     5.141397     2.479578    -1.811459
 C     2.974711     3.079703     0.735624
 H     2.278155     2.548087     1.385751
 C     4.738129     4.427180    -0.943907
 H     5.429371     4.948139    -1.612330
 C     3.128822     4.461167     0.832531
 H     2.542720     5.007587     1.576491
 C     4.008446     5.161433     0.000740
 C     4.187140     6.646649     0.128154
 H     5.101103     6.890462     0.695288
 H     3.340339     7.110016     0.654018
 H     4.279502     7.126920    -0.857491
 C     2.316277    -0.797645     1.901489
 C     3.484233    -0.408362     2.551233
 H     3.891951     0.588338     2.374632
 C     1.782786    -2.069737     2.113898
 H     0.873873    -2.356718     1.581513
 C     4.117981    -1.303760     3.411770
 H     5.036099    -0.994888     3.919053
 C     2.427570    -2.949266     2.975492
 H     2.007587    -3.947070     3.130917
 C     3.608277    -2.586110     3.638040
 C     4.298674    -3.552668     4.556373
 H     5.199262    -3.109736     5.004059
 H     4.604178    -4.464383     4.018442
 H     3.635788    -3.869411     5.377280
