  84
scf done:    -2849.739062
 C    -0.849111    -0.024331    -3.772095
 H    -1.361255    -0.919424    -4.138209
 H    -1.454796     0.884491    -3.825408
 C     0.563338     0.052715    -3.874059
 H     1.112910    -0.785114    -4.315441
 H     1.043747     1.025592    -4.011209
 H    -0.071581     1.310830    -1.818097
Rh    -0.006028    -0.273186    -1.814380
 C    -1.648007     1.670894     0.562362
 C    -3.447483     0.236546    -1.156454
 C    -2.195192    -1.129792     0.951167
 C     1.672648    -1.214293     1.112945
 C     3.468549    -0.564627    -1.002445
 C     2.176381     1.529554     0.421016
 P     1.811163    -0.105277    -0.344257
 P    -1.793322     0.093997    -0.363194
 C     0.122452    -2.168316    -1.998023
 O     0.241465    -3.294671    -2.186318
 C    -1.305979     1.723503     1.916605
 H    -1.233349     0.800744     2.494164
 C    -1.753802     2.879399    -0.139995
 H    -2.008737     2.867425    -1.203232
 C    -1.050823     2.943024     2.540604
 H    -0.767417     2.953547     3.596852
 C    -1.525215     4.094194     0.495397
 H    -1.621323     5.022940    -0.074293
 C    -1.148140     4.150554     1.843750
 C    -0.808899     5.453472     2.503944
 H    -1.281228     6.303547     1.991277
 H    -1.124249     5.467833     3.557527
 H     0.281337     5.621396     2.488875
 C    -3.752703    -0.673961    -2.175755
 H    -2.986244    -1.379620    -2.504168
 C    -4.430063     1.146136    -0.748097
 H    -4.214845     1.867105     0.043737
 C    -5.008031    -0.686366    -2.773985
 H    -5.258085    -1.391558    -3.568590
 C    -5.687989     1.153411    -1.346466
 H    -6.461677     1.861336    -1.043584
 C    -5.960615     0.234071    -2.351662
 F    -7.160890     0.237218    -2.926574
 C    -1.534967    -2.358825     0.968859
 H    -0.762350    -2.564001     0.229236
 C    -3.183792    -0.881652     1.915440
 H    -3.731900     0.063497     1.907035
 C    -1.830226    -3.321329     1.930127
 H    -1.313671    -4.281688     1.948857
 C    -3.474397    -1.822003     2.897314
 H    -4.230450    -1.638125     3.662765
 C    -2.784497    -3.031154     2.892409
 F    -3.041585    -3.929134     3.844334
 C     1.938145    -2.582207     0.968711
 H     2.330146    -2.966512     0.023232
 C     1.169425    -0.766086     2.339825
 H     0.957480     0.294457     2.481659
 C     1.705612    -3.466360     2.019068
 H     1.923428    -4.529129     1.880495
 C     0.934424    -1.655693     3.383023
 H     0.532644    -1.277956     4.327594
 C     1.190429    -3.023928     3.243232
 C     0.875091    -3.980649     4.354258
 H     1.225377    -3.600522     5.325736
 H    -0.214524    -4.129783     4.440092
 H     1.334311    -4.964791     4.185554
 C     3.696524    -0.427460    -2.374985
 H     2.868396    -0.114577    -3.013111
 C     4.522208    -0.988623    -0.180918
 H     4.363335    -1.122761     0.891384
 C     4.947597    -0.695725    -2.924680
 H     5.137704    -0.593714    -3.994566
 C     5.775315    -1.267033    -0.716202
 H     6.603822    -1.605133    -0.091161
 C     5.971839    -1.112539    -2.084726
 F     7.169358    -1.379035    -2.599757
 C     1.634803     2.688753    -0.137916
 H     0.977081     2.596376    -1.004656
 C     3.022733     1.652867     1.533516
 H     3.471260     0.765648     1.984661
 C     1.901910     3.942354     0.404787
 H     1.472079     4.849923    -0.021481
 C     3.287527     2.895899     2.097214
 H     3.930081     3.003305     2.972862
 C     2.713233     4.026361     1.525285
 F     2.937893     5.219820     2.078519
