 110
scf done:    -4208.884540
 C     0.409995     1.571831     3.282934
 H     0.761272     0.913607     4.080672
 H     1.077130     2.414634     3.079141
 C    -0.976150     1.711916     3.036073
 H    -1.704667     1.158550     3.637657
 H    -1.359496     2.640657     2.610056
 H     0.121294     1.865275     0.811263
Rh    -0.127269     0.476895     1.498833
 C     2.652655     1.423468    -0.349564
 C     3.399785    -0.649529     1.288261
 C     1.765440    -1.302235    -0.996819
 C    -1.935103    -1.231948    -1.066839
 C    -3.384992     0.046862     1.242442
 C    -2.694000     1.518261    -1.079629
 P    -1.966472     0.245103     0.054770
 P     1.863722    -0.087155     0.385585
 C    -0.447319    -1.156104     2.456770
 O    -0.650058    -2.082414     3.107918
 C     3.086715     1.581429    -1.667712
 H     2.979885     0.762966    -2.378172
 C     2.868349     2.474482     0.548508
 H     2.531997     2.366605     1.581634
 C     3.688667     2.764270    -2.090141
 H     4.015719     2.885826    -3.124414
 C     3.490262     3.655204     0.151066
 H     3.657037     4.466984     0.860840
 C     3.887856     3.797905    -1.176758
Cl     4.635702     5.274453    -1.699495
 C     4.629987    -0.732270     0.599053
 O     4.574617    -0.593844    -0.737056
 C     5.750306    -0.516068    -1.488203
 H     5.442338    -0.339901    -2.526814
 H     6.391969     0.319126    -1.159062
 H     6.327776    -1.455937    -1.444569
 C     3.413834    -0.969399     2.662157
 O     2.234070    -1.056483     3.292218
 C     2.188810    -1.368949     4.653837
 H     1.127102    -1.408885     4.925680
 H     2.692005    -0.602452     5.268658
 H     2.643415    -2.353144     4.863944
 C     4.621060    -1.220902     3.334594
 H     4.623202    -1.432299     4.402429
 C     5.836386    -0.983914     1.263565
 H     6.777521    -1.015785     0.716604
 C     5.818214    -1.210116     2.633283
 H     6.754973    -1.400981     3.162433
 C     2.186303    -2.636006    -0.834890
 O     2.517115    -3.007093     0.416967
 C     3.237634    -4.184185     0.636595
 H     3.530108    -4.174399     1.694904
 H     2.629093    -5.084817     0.441325
 H     4.148363    -4.224418     0.014636
 C     1.187375    -0.951531    -2.231941
 O     0.629964     0.270744    -2.298380
 C     0.175277     0.748180    -3.532876
 H    -0.193195     1.762639    -3.351658
 H    -0.650461     0.132040    -3.924936
 H     0.989734     0.780271    -4.278201
 C     1.206264    -1.836675    -3.317608
 H     0.773126    -1.550953    -4.274427
 C     2.215004    -3.525745    -1.913712
 H     2.572020    -4.546722    -1.781648
 C     1.740347    -3.107761    -3.151874
 H     1.738619    -3.804733    -3.992476
 C    -1.216636    -2.364271    -0.661410
 H    -0.723810    -2.364544     0.310367
 C    -2.494928    -1.239588    -2.347094
 H    -3.033270    -0.367733    -2.715876
 C    -1.113631    -3.489344    -1.467542
 H    -0.550890    -4.362835    -1.137502
 C    -2.372803    -2.347278    -3.186332
 H    -2.805606    -2.338612    -4.188199
 C    -1.689658    -3.470616    -2.735640
Cl    -1.499280    -4.842567    -3.782230
 C    -3.970130     1.200358     1.804399
 O    -3.510337     2.383519     1.352036
 C    -4.048103     3.579579     1.829322
 H    -3.530066     4.384473     1.292138
 H    -5.130184     3.654320     1.621996
 H    -3.879022     3.702208     2.913741
 C    -3.806518    -1.197233     1.741285
 O    -3.190651    -2.279937     1.234179
 C    -3.450031    -3.550625     1.750495
 H    -2.808229    -4.243992     1.190752
 H    -4.503215    -3.848518     1.604664
 H    -3.198165    -3.612581     2.823113
 C    -4.804069    -1.294716     2.721059
 H    -5.118904    -2.269079     3.092324
 C    -4.973011     1.112807     2.777364
 H    -5.418253     2.014590     3.195502
 C    -5.384033    -0.137659     3.224386
 H    -6.161517    -0.210197     3.988418
 C    -1.986831     2.670030    -1.479936
 O    -0.678332     2.709515    -1.207061
 C     0.051421     3.888684    -1.394993
 H     1.055968     3.692036    -1.005031
 H     0.128858     4.159653    -2.463102
 H    -0.393669     4.734157    -0.842964
 C    -4.061654     1.443717    -1.425103
 O    -4.699652     0.308620    -1.087560
 C    -6.096888     0.256841    -1.072509
 H    -6.363437    -0.700673    -0.607169
 H    -6.524042     0.292318    -2.090142
 H    -6.524450     1.076938    -0.470816
 C    -4.714136     2.490663    -2.085769
 H    -5.771268     2.414984    -2.337767
 C    -2.636093     3.723624    -2.143651
 H    -2.080709     4.612403    -2.439458
 C    -3.990737     3.625706    -2.430813
 H    -4.491640     4.447466    -2.948612
