  84
scf done:    -2452.971900
 C    -0.803002    -3.497369    -1.411499
 H    -1.263668    -4.188199    -0.698445
 H    -1.449405    -3.224887    -2.250255
 C     0.604841    -3.496235    -1.562112
 H     1.207743    -4.193197    -0.971755
 H     1.053001    -3.231821    -2.523805
 H    -0.177160    -1.125225    -1.932579
Rh    -0.014836    -1.730787    -0.469532
 C    -1.666040     1.375189    -0.713980
 C    -3.369943    -0.915233    -0.984172
 C    -2.450015    -0.106919     1.588352
 C     1.745854     0.795939     1.188015
 C     3.466045    -1.168625     0.081789
 C     2.294103     0.757374    -1.653685
 P     1.849372    -0.342420    -0.247022
 P    -1.845372    -0.356921    -0.129348
 C     0.089843    -2.515891     1.266502
 O     0.132450    -2.999796     2.305859
 C    -2.124424     2.473339     0.020066
 H    -2.665101     2.317933     0.955757
 C    -0.971639     1.613813    -1.907418
 H    -0.595597     0.766604    -2.483449
 C    -1.861455     3.772253    -0.413674
 H    -2.212526     4.617458     0.185293
 C    -0.715183     2.909741    -2.336437
 H    -0.143476     3.062812    -3.256062
 C    -1.142593     4.015741    -1.588583
 C    -0.831948     5.410529    -2.045167
 H    -1.357317     5.646094    -2.984881
 H    -1.129947     6.158405    -1.297181
 H     0.245118     5.530953    -2.240284
 C    -3.818465    -2.219551    -0.734709
 C    -4.088684    -0.105234    -1.868131
 C    -5.681972    -1.886979    -2.234241
 C    -5.236554    -0.593357    -2.494309
 C    -4.971651    -2.698545    -1.347521
 H    -3.251179    -2.858958    -0.053939
 H    -5.314012    -3.715262    -1.139990
 H    -6.581999    -2.266536    -2.723985
 H    -5.787312     0.047092    -3.187685
 H    -3.751214     0.914037    -2.068081
 C    -1.501599     0.044949     2.606749
 C    -3.811190    -0.021564     1.906749
 C    -3.261508     0.367981     4.228883
 C    -4.212714     0.211292     3.221466
 C    -1.904699     0.286662     3.917387
 H    -0.438000    -0.020413     2.371069
 H    -1.148507     0.401744     4.697611
 H    -3.579035     0.547692     5.259001
 H    -5.277800     0.270141     3.458913
 H    -4.562162    -0.138345     1.122256
 C     2.200664     0.374947     2.443493
 H     2.754716    -0.562376     2.536548
 C     1.038688     2.004194     1.108130
 H     0.661180     2.357993     0.147832
 C     1.941964     1.133287     3.583713
 H     2.302806     0.779397     4.553569
 C     0.791839     2.757344     2.249991
 H     0.228440     3.689898     2.156125
 C     1.227187     2.333438     3.511635
 C     0.900571     3.126147     4.742404
 H     1.087879     4.200257     4.592453
 H    -0.165848     3.017524     5.002420
 H     1.490647     2.793074     5.607830
 C     3.498819    -2.540676     0.339247
 C     4.663858    -0.441626     0.109243
 C     5.890857    -2.449362     0.656719
 C     5.867705    -1.078179     0.394133
 C     4.705364    -3.178813     0.629556
 H     2.564850    -3.103703     0.302509
 H     4.715480    -4.252641     0.831115
 H     6.837356    -2.947890     0.879881
 H     6.795592    -0.501248     0.410927
 H     4.657016     0.631115    -0.095734
 C     2.088969     0.269090    -2.949541
 C     2.853702     2.030595    -1.492158
 C     2.962009     2.315547    -3.890101
 C     3.178468     2.806638    -2.603906
 C     2.423548     1.039867    -4.059886
 H     1.639723    -0.719232    -3.076164
 H     2.254929     0.644344    -5.064415
 H     3.215005     2.925503    -4.760799
 H     3.604581     3.802832    -2.461143
 H     3.025519     2.430518    -0.490803
