  54
scf done:    -2827.729535
 C    -0.511308    -3.857574     0.836947
 H     0.019383    -4.153622     1.746047
 H    -1.599291    -3.853995     0.937146
 C     0.081821    -4.068587    -0.430694
 H     1.068212    -4.537874    -0.496298
 H    -0.554966    -4.236388    -1.303313
 H    -1.240793    -1.918297    -0.621430
Rh     0.180961    -1.956250     0.090542
 C    -2.210966     0.503534     0.768176
 O    -1.507985    -1.147393     2.790144
 O    -0.006113     0.821721     2.090914
 C     2.007378     0.777182    -1.044366
 O     1.698185    -1.075197    -2.851092
 O    -0.282991     0.475001    -2.196574
 P     0.849104    -0.523537    -1.556138
 P    -0.827195    -0.463690     1.460387
 C     1.905688    -2.157763     0.900756
 O     2.934850    -2.331743     1.373428
 C    -2.131557     1.881183     0.552654
 H    -1.236189     2.418099     0.869625
 C    -3.366988    -0.184063     0.379501
 H    -3.433681    -1.264208     0.536937
 C    -3.181575     2.564685    -0.056492
 H    -3.122659     3.639481    -0.235871
 C    -4.428472     0.488406    -0.214867
 H    -5.333258    -0.041696    -0.516387
 C    -4.323721     1.862695    -0.437594
Cl    -5.629152     2.703502    -1.202175
 C    -2.220050    -0.370367     3.733154
 H    -1.618224     0.482069     4.085594
 H    -3.160629     0.015338     3.305838
 H    -2.454328    -1.025470     4.582929
 C     1.327835     0.673189     2.530562
 H     1.426011    -0.142699     3.265081
 H     2.008618     0.484857     1.686210
 H     1.616547     1.618661     3.008821
 C     3.350416     0.447513    -0.831112
 H     3.712141    -0.552122    -1.083095
 C     1.560812     2.065100    -0.736134
 H     0.518058     2.326371    -0.921375
 C     4.233808     1.381077    -0.299410
 H     5.281806     1.129695    -0.129643
 C     2.435239     3.007452    -0.202494
 H     2.093923     4.014660     0.042045
 C     3.765787     2.656132     0.020284
Cl     4.853384     3.818092     0.702048
 C     1.463009    -2.362608    -3.379039
 H     1.127239    -3.054755    -2.589821
 H     0.700916    -2.325747    -4.175286
 H     2.405377    -2.727390    -3.811286
 C    -1.525836     0.023927    -2.681081
 H    -1.449346    -0.242349    -3.748273
 H    -1.885455    -0.849455    -2.111879
 H    -2.248728     0.843616    -2.565367
