  50
scf done:    -2526.983930
 C    -4.413803    -1.073160     0.165008
 H    -4.997671    -0.893355    -0.742943
 H    -4.340688    -2.127549     0.446491
 C    -4.363190    -0.073317     1.172826
 H    -4.907638     0.865295     1.029328
 H    -4.253636    -0.369670     2.220105
 H    -2.093544    -1.247583     1.200991
Rh    -2.482039    -0.124524     0.124944
 C     0.591652    -1.662478    -0.545657
 C    -1.665673    -3.163620    -1.403226
 C    -0.840404    -0.909969    -2.921795
 C     0.583836     1.553726     0.642370
 C    -1.675436     2.920737     1.683889
 C    -0.687168     0.637172     3.057049
 P    -1.069765     1.215459     1.365068
 P    -1.112256    -1.427356    -1.185087
 C    -2.933430     1.177497    -1.182554
 O    -3.163946     1.963835    -1.989572
 C     1.736844    -1.298145    -1.260543
 H     1.656719    -0.886827    -2.267691
 C     0.749787    -2.172113     0.751136
 H    -0.135596    -2.438775     1.335084
 C     3.005683    -1.420429    -0.698273
 H     3.891447    -1.096624    -1.247152
 C     2.010085    -2.315712     1.319854
 H     2.128993    -2.709044     2.330957
 C     3.133528    -1.923654     0.592128
Cl     4.702305    -2.013116     1.323762
 H    -1.761562    -3.631464    -0.413717
 H    -2.661489    -3.154004    -1.869916
 H    -0.964082    -3.744781    -2.020615
 H    -0.201039    -1.609978    -3.480844
 H    -1.825342    -0.853899    -3.407369
 H    -0.397529     0.095888    -2.943973
 C     0.634972     2.055146    -0.666539
 H    -0.294409     2.258931    -1.206154
 C     1.788188     1.277595     1.295764
 H     1.790485     0.873347     2.309157
 C     1.848619     2.279243    -1.305516
 H     1.884250     2.667177    -2.324974
 C     3.012993     1.478900     0.662226
 H     3.947836     1.221330     1.162680
 C     3.034793     1.974019    -0.637289
Cl     4.550761     2.160907    -1.456302
 H    -1.833450     3.431881     0.723577
 H    -2.647263     2.851751     2.194288
 H    -0.968488     3.502448     2.294630
 H    -0.173885    -0.332747     3.003416
 H    -0.076670     1.356022     3.624442
 H    -1.645470     0.482488     3.572612
