 102
scf done:    -3607.623209
 C    -0.184873     2.672186    -3.541693
 H    -0.529157     2.292438    -4.508857
 H    -0.873966     3.375740    -3.065956
 C     1.206683     2.779850    -3.284714
 H     1.924170     2.480045    -4.055023
 H     1.567842     3.555380    -2.603985
 H     0.102184     2.215952    -1.088355
Rh     0.407312     1.107443    -2.184612
 C    -1.780668     0.643070     0.459227
 C    -3.044683     0.783016    -2.171943
 C    -1.667856    -1.684143    -1.400566
 C     2.124703    -1.245993    -0.138065
 C     3.813306     0.649385    -1.344137
 C     2.107162     1.402772     0.924969
 P     2.057121     0.509379    -0.693401
 P    -1.505188     0.183263    -1.293493
 C     0.705936    -0.174556    -3.566361
 O     0.854488    -0.944671    -4.408069
 C    -1.243434    -0.111461     1.510779
 H    -0.719399    -1.046325     1.309598
 C    -2.406940     1.856070     0.773069
 H    -2.778069     2.505475    -0.021558
 C    -1.364488     0.307722     2.833694
 H    -0.946531    -0.290816     3.644625
 C    -2.548485     2.281584     2.088912
 H    -3.041409     3.226748     2.319962
 C    -2.026202     1.500157     3.117514
Cl    -2.155846     2.049176     4.756440
 H    -3.059798     1.873516    -2.028330
 H    -2.794057     0.632200    -3.232897
 C    -4.352379     0.138404    -1.832452
 C    -4.817804    -0.948240    -2.584758
 H    -4.257338    -1.277356    -3.464087
 C    -5.116918     0.558303    -0.735979
 H    -4.777908     1.407138    -0.140100
 C    -5.986948    -1.612308    -2.221974
 H    -6.330914    -2.465874    -2.810803
 C    -6.292863    -0.095210    -0.356958
 C    -7.083803     0.383293     0.825653
 H    -6.439287     0.883984     1.562589
 H    -7.856965     1.106770     0.517477
 H    -7.597441    -0.448754     1.328877
 C    -6.715451    -1.196937    -1.110588
 H    -7.626653    -1.729746    -0.825302
 H    -2.375169    -1.848512    -2.229190
 H    -0.686603    -2.030435    -1.749473
 C    -2.079307    -2.484717    -0.199067
 C    -1.178837    -3.402970     0.354698
 H    -0.201736    -3.543733    -0.109475
 C    -3.324874    -2.321016     0.410929
 H    -4.035847    -1.605602    -0.003181
 C    -1.514435    -4.120421     1.499098
 H    -0.797393    -4.831717     1.917225
 C    -3.677744    -3.029338     1.563769
 C    -5.013248    -2.789392     2.206515
 H    -5.824143    -2.838018     1.463699
 H    -5.222518    -3.523448     2.997332
 H    -5.053878    -1.784914     2.659186
 C    -2.755159    -3.930956     2.105375
 H    -3.013855    -4.491214     3.008145
 C     2.268104    -1.644115     1.195409
 H     2.299988    -0.905049     1.996338
 C     2.112656    -2.240182    -1.127089
 H     1.992735    -1.962024    -2.176995
 C     2.398110    -2.988409     1.537071
 H     2.505247    -3.290800     2.579937
 C     2.270919    -3.584175    -0.806210
 H     2.272000    -4.350249    -1.583293
 C     2.409402    -3.951404     0.532785
Cl     2.577731    -5.623017     0.952479
 H     3.822379     0.009203    -2.239516
 H     3.923011     1.683303    -1.702040
 C     4.879143     0.259312    -0.368782
 C     5.468291     1.206696     0.481044
 H     5.203660     2.262981     0.386856
 C     5.254068    -1.081349    -0.227903
 H     4.809230    -1.829136    -0.889637
 C     6.387550     0.808739     1.447580
 H     6.842544     1.555828     2.102483
 C     6.164433    -1.501462     0.746860
 C     6.501881    -2.958414     0.881469
 H     5.598802    -3.555805     1.086734
 H     6.942726    -3.353220    -0.047665
 H     7.218197    -3.134577     1.696001
 C     6.727666    -0.536052     1.586982
 H     7.443065    -0.840723     2.355639
 H     1.320155     0.933598     1.533158
 H     3.075061     1.188866     1.409797
 C     1.843701     2.879625     0.870121
 C     2.599197     3.754897     0.082716
 H     3.406693     3.375369    -0.544846
 C     0.815363     3.412205     1.653266
 H     0.221807     2.735460     2.272102
 C     2.319159     5.119064     0.081320
 H     2.914112     5.792507    -0.540540
 C     0.521576     4.778456     1.669453
 C    -0.602019     5.312163     2.510762
 H    -1.506957     5.473268     1.900850
 H    -0.867968     4.616193     3.319001
 H    -0.340938     6.281005     2.962111
 C     1.289303     5.629592     0.867086
 H     1.080951     6.703145     0.861964
