  60
scf done:    -1987.357999
 C    -1.081042    -3.753776    -0.391848
 H    -1.505380    -3.958081    -1.378783
 H    -0.105469    -4.214309    -0.220071
 C    -1.934789    -3.467687     0.700082
 H    -3.019175    -3.463800     0.550489
 H    -1.620883    -3.721339     1.715907
 H     0.137902    -2.072553     1.067048
Rh    -0.968386    -1.640543     0.016078
 C     2.325960    -0.351354    -0.281221
 O     1.503958    -2.269579    -2.016131
 O     0.791260     0.175939    -2.301882
 C    -1.298464     1.769533     0.531484
 O    -2.566500     0.352048     2.306215
 O     0.020023     0.354275     2.422925
 P    -1.222860     0.155100     1.369202
 P     0.867680    -1.017410    -1.160728
 C    -2.431982    -1.215908    -1.149489
 O    -3.354424    -0.997732    -1.794380
 C     3.053368     0.742716    -0.765184
 H     2.738485     1.220267    -1.694653
 C     2.730046    -0.949438     0.916440
 H     2.157368    -1.789052     1.317175
 C     4.154861     1.223073    -0.062895
 H     4.710536     2.079741    -0.455315
 C     3.836927    -0.469111     1.608245
 H     4.136138    -0.951835     2.542790
 C     4.566099     0.628857     1.136234
 C     5.731217     1.172058     1.909902
 H     6.267257     0.374557     2.444778
 H     6.446595     1.688663     1.253945
 H     5.393940     1.901268     2.665692
 C     2.681973    -2.124784    -2.778885
 H     2.585239    -1.312144    -3.517190
 H     3.555101    -1.917546    -2.137285
 H     2.844825    -3.073388    -3.308652
 C    -0.406979     0.482822    -2.974668
 H    -0.856247    -0.406741    -3.445081
 H    -1.140000     0.943062    -2.292758
 H    -0.157752     1.208832    -3.761120
 C    -2.516368     2.350738     0.168847
 H    -3.449863     1.901173     0.513914
 C    -0.106629     2.356194     0.088514
 H     0.852534     1.904931     0.354694
 C    -2.537961     3.491911    -0.629728
 H    -3.498652     3.931794    -0.912097
 C    -0.137758     3.499194    -0.702048
 H     0.803295     3.940816    -1.042248
 C    -1.352966     4.085600    -1.080018
 C    -1.378554     5.328276    -1.920757
 H    -1.234671     6.227142    -1.297978
 H    -0.575032     5.322967    -2.672072
 H    -2.338346     5.442280    -2.444442
 C    -3.181929    -0.771384     2.899820
 H    -3.115705    -1.649039     2.236607
 H    -2.706895    -1.018449     3.863845
 H    -4.236761    -0.519328     3.077674
 C     0.037700     1.424066     3.344641
 H     0.095595     2.399095     2.833312
 H    -0.860766     1.416280     3.981754
 H     0.930943     1.294640     3.970729
