 100
scf done:    -2910.764421
 C    -0.762297    -1.377639    -3.536576
 H    -1.351675    -2.299151    -3.573294
 H    -1.276138    -0.508875    -3.957318
 C     0.653946    -1.462719    -3.583739
 H     1.123960    -2.449286    -3.656297
 H     1.232181    -0.657997    -4.046445
 H     0.100470     0.524299    -2.185498
Rh     0.015159    -0.940880    -1.587761
 C    -1.486639     1.892324    -0.235457
 C    -3.379038     0.048130    -1.342601
 C    -2.272385    -0.491081     1.187815
 C     1.532694    -0.820950     1.571202
 C     3.420191    -1.171933    -0.523413
 C     2.286913     1.411387    -0.076410
 P     1.806446    -0.359929    -0.186558
 P    -1.759846     0.093419    -0.476665
 C    -0.020408    -2.766529    -1.038177
 O     0.009641    -3.887109    -0.785597
 C    -1.150008     2.450101     1.000549
 H    -1.158358     1.826455     1.895497
 C    -1.488202     2.730885    -1.358959
 H    -1.738761     2.318766    -2.340216
 C    -0.799261     3.794857     1.105258
 H    -0.520828     4.199618     2.082488
 C    -1.163064     4.076904    -1.243764
 H    -1.176238     4.709504    -2.136002
 C    -0.791359     4.632968    -0.012396
 C    -0.345581     6.060913     0.093014
 H    -0.789655     6.683773    -0.696995
 H    -0.613720     6.497195     1.066608
 H     0.751273     6.128623    -0.007874
 C    -4.303875     1.103217    -1.326881
 H    -4.048380     2.046752    -0.838846
 C    -3.743426    -1.138896    -1.980516
 H    -3.029668    -1.965580    -2.005035
 C    -5.543433     0.973049    -1.935017
 H    -6.265372     1.792023    -1.934469
 C    -4.989470    -1.288711    -2.586018
 H    -5.234634    -2.232553    -3.073451
 C    -5.899260    -0.225325    -2.569389
 O    -7.122676    -0.261159    -3.133623
 C    -7.531782    -1.431991    -3.782256
 H    -7.563413    -2.294617    -3.093278
 H    -8.544300    -1.244680    -4.161918
 H    -6.873116    -1.682885    -4.632549
 C    -1.757790    -1.691693     1.688071
 H    -1.025253    -2.245546     1.102385
 C    -3.212242     0.195989     1.963206
 H    -3.657308     1.121448     1.589371
 C    -2.146504    -2.181409     2.924609
 H    -1.738926    -3.115770     3.312893
 C    -3.594374    -0.268054     3.220023
 H    -4.318148     0.303466     3.801635
 C    -3.051106    -1.462348     3.711937
 O    -3.332791    -1.983625     4.925574
 C    -4.233819    -1.309067     5.757925
 H    -5.234631    -1.227887     5.298755
 H    -4.313897    -1.899184     6.679676
 H    -3.877765    -0.295117     6.012985
 C     1.703961    -2.152440     1.970783
 H     2.101338    -2.886364     1.264650
 C     1.022493     0.086391     2.506753
 H     0.883853     1.130246     2.223291
 C     1.371163    -2.556677     3.261034
 H     1.513898    -3.602803     3.546568
 C     0.689825    -0.324404     3.793246
 H     0.283235     0.405496     4.499263
 C     0.848530    -1.654710     4.195123
 C     0.419521    -2.100252     5.561507
 H     0.726084    -1.380167     6.335359
 H    -0.679520    -2.185450     5.611643
 H     0.842641    -3.081447     5.819712
 C     4.446176    -1.253630     0.433270
 H     4.281567    -0.880261     1.446670
 C     3.662514    -1.686455    -1.795711
 H     2.861769    -1.638965    -2.535759
 C     5.667170    -1.826200     0.120305
 H     6.467468    -1.900943     0.859056
 C     4.889650    -2.261376    -2.128632
 H     5.037972    -2.653414    -3.135027
 C     5.902456    -2.332938    -1.167750
 O     7.119148    -2.870369    -1.380577
 C     7.412220    -3.394776    -2.645029
 H     7.349811    -2.624397    -3.433830
 H     8.441565    -3.772453    -2.598722
 H     6.738003    -4.228138    -2.910665
 C     1.899376     2.301108    -1.085368
 H     1.284558     1.927182    -1.906884
 C     3.074618     1.908365     0.967475
 H     3.407089     1.244713     1.768262
 C     2.260500     3.638157    -1.043154
 H     1.946697     4.331427    -1.825203
 C     3.433173     3.253125     1.033322
 H     4.033415     3.602932     1.873508
 C     3.015425     4.130836     0.025898
 O     3.279694     5.455727     0.012197
 C     4.035818     6.003546     1.055281
 H     5.044733     5.558219     1.107768
 H     4.132587     7.076278     0.845030
 H     3.540191     5.874771     2.033920
