 110
scf done:    -3488.254432
 C     0.623679    -2.451119    -2.698261
 H     1.319658    -1.892734    -3.326822
 H     0.981048    -3.442387    -2.399655
 C    -0.770101    -2.201898    -2.794452
 H    -1.145223    -1.455667    -3.500336
 H    -1.489939    -2.995373    -2.566672
 H     0.248283    -0.070342    -2.054815
Rh    -0.017182    -1.250350    -1.031145
 C    -1.936216     1.761693    -0.705070
 C    -3.367220    -0.783301    -1.036655
 C    -2.188477     0.033887     1.523535
 C     1.571756     0.365926     1.742800
 C     3.518014    -1.139190     0.259601
 C     2.403358     1.156622    -0.979042
 P     1.871835    -0.298820     0.050232
 P    -1.858165    -0.046000    -0.290873
 C    -0.385491    -2.820915    -0.014899
 O    -0.619867    -3.857771     0.424068
 C    -0.943150     2.315991    -1.516281
 H    -0.156151     1.663433    -1.900545
 C    -2.950358     2.600991    -0.222835
 H    -3.752373     2.190796     0.390197
 C    -0.949259     3.668765    -1.847164
 H    -0.169424     4.099095    -2.478364
 C    -2.967127     3.956841    -0.539722
 H    -3.752720     4.618642    -0.169672
 C    -1.962860     4.474722    -1.348723
 F    -1.968464     5.777491    -1.644730
 C    -3.913778    -1.952915    -0.477055
 O    -3.331436    -2.371862     0.659816
 C    -3.676545    -3.597719     1.233959
 H    -3.009445    -3.721019     2.095671
 H    -4.726307    -3.609860     1.578878
 H    -3.517943    -4.434150     0.532575
 C    -3.874538    -0.348950    -2.273700
 O    -3.238112     0.689328    -2.844328
 C    -3.712266     1.241365    -4.036228
 H    -3.053823     2.089711    -4.263599
 H    -4.748134     1.609488    -3.933699
 H    -3.668944     0.518850    -4.870188
 C    -4.961020    -0.998200    -2.876582
 H    -5.360401    -0.643828    -3.826083
 C    -4.988324    -2.617835    -1.077457
 H    -5.408131    -3.516104    -0.625585
 C    -5.509823    -2.120931    -2.268038
 H    -6.350824    -2.632216    -2.742468
 C    -3.368353     0.314877     2.114829
 O    -4.483817     0.509998     1.357186
 C    -5.660286    -0.163536     1.726350
 H    -6.321280    -0.142869     0.849943
 H    -5.454541    -1.214542     1.985252
 H    -6.176871     0.323376     2.572204
 C    -0.975035    -0.224196     2.389883
 O    -0.795457    -1.609488     2.386466
 C     0.363810    -2.166842     2.946073
 H     0.100762    -3.179462     3.285863
 H     0.746070    -1.598423     3.810660
 H     1.171867    -2.249380     2.202829
 C    -1.067362     0.394623     3.804334
 H    -0.523442    -0.255541     4.506875
 C    -3.495324     0.571453     3.552229
 H    -4.495082     0.760346     3.949228
 C    -2.419976     0.664690     4.347935
 H    -2.529036     0.916025     5.407051
 C     2.531665     0.521546     2.675362
 H     3.556636     0.218277     2.463904
 C     0.163920     0.798623     2.020850
 H    -0.162990     1.406272     1.166321
 C     2.281308     1.165514     3.959220
 H     3.091530     1.272615     4.683269
 C    -0.104767     1.539773     3.365142
 H    -0.627863     2.501678     3.245577
 C     1.078635     1.685284     4.239806
 F     0.844039     2.317845     5.394110
 C     4.727195    -0.409559     0.277035
 O     4.629257     0.921353     0.454941
 C     5.690977     1.762497     0.105515
 H     5.299132     2.786962     0.150732
 H     6.540515     1.670793     0.804911
 H     6.042503     1.563653    -0.921156
 C     3.616635    -2.545747     0.222829
 O     2.473246    -3.242165     0.331818
 C     2.499509    -4.637474     0.205705
 H     1.461697    -4.974600     0.301983
 H     3.107021    -5.106635     0.999096
 H     2.891611    -4.947055    -0.778239
 C     4.859128    -3.183524     0.089542
 H     4.922730    -4.269022     0.039959
 C     5.969835    -1.039077     0.137018
 H     6.889522    -0.454994     0.135270
 C     6.019165    -2.422629     0.030634
 H     6.985192    -2.922224    -0.075540
 C     3.041265     0.862330    -2.201263
 O     3.230136    -0.444011    -2.459568
 C     3.972961    -0.844368    -3.572089
 H     4.030923    -1.939030    -3.524686
 H     3.487527    -0.552793    -4.519878
 H     4.996410    -0.430009    -3.548303
 C     2.194210     2.509293    -0.664017
 O     1.563454     2.781608     0.493524
 C     1.360687     4.107618     0.888814
 H     0.858511     4.065403     1.863535
 H     0.715327     4.652280     0.179150
 H     2.315641     4.649152     1.005196
 C     2.622028     3.528680    -1.528949
 H     2.451873     4.573888    -1.274866
 C     3.469539     1.872284    -3.070013
 H     3.959991     1.625235    -4.010707
 C     3.254283     3.200992    -2.721270
 H     3.582218     3.996694    -3.394349
