  70
scf done:    -2466.553245
 C     0.402289    -3.568381     0.976561
 H     1.159295    -4.147580     0.437486
 H     0.587811    -3.489763     2.050628
 C    -0.927641    -3.552623     0.486283
 H    -1.165796    -4.116085    -0.421907
 H    -1.764411    -3.451741     1.182935
 H    -0.593012    -1.276754     1.541749
Rh    -0.023763    -1.639819     0.091557
 C     1.833555     0.243280     2.467083
 C     3.411691    -0.748494     0.319671
 C     1.700781     1.449247    -0.138748
 C    -1.843609     0.169850    -2.361856
 C    -3.432304    -0.766667    -0.194490
 C    -1.674479     1.444854     0.245672
 P    -1.720613    -0.206202    -0.551034
 P     1.694800    -0.194698     0.679763
 C     0.607689    -2.094763    -1.644618
 O     0.969188    -2.355586    -2.703381
 H     0.924453     0.814045     2.716727
 C     1.963392    -0.979082     3.358452
 H     2.849361    -1.577063     3.094415
 H     1.079472    -1.624926     3.260496
 H     2.698982     0.914398     2.594610
 H     2.060846    -0.681325     4.413251
 C     4.482826     0.155175     0.282328
 H     4.301118     1.224328     0.420613
 C     3.667883    -2.108432     0.119087
 H     2.830522    -2.809016     0.141450
 C     5.781028    -0.287137     0.052179
 H     6.625047     0.403905     0.012537
 C     4.963423    -2.567191    -0.108336
 H     5.177523    -3.625404    -0.268179
 C     6.003297    -1.647400    -0.138841
 F     7.243585    -2.074107    -0.361721
 C     1.648167     1.471889    -1.540367
 H     1.613956     0.529083    -2.093040
 C     1.745445     2.666688     0.547426
 H     1.776076     2.689729     1.637391
 C     1.641612     2.672243    -2.241115
 H     1.605880     2.700203    -3.331836
 C     1.733261     3.879186    -0.140808
 H     1.750529     4.834101     0.387553
 C     1.678970     3.865823    -1.526364
 F     1.648571     5.020778    -2.189060
 H    -1.652163    -0.795116    -2.857099
 C    -3.140301     0.777683    -2.872302
 H    -3.407496     1.705919    -2.346299
 H    -3.979985     0.080186    -2.741058
 H    -0.965981     0.795833    -2.595579
 H    -3.061029     1.010475    -3.945655
 C    -4.420563     0.060321     0.351178
 H    -4.181491     1.089141     0.627975
 C    -3.771755    -2.078843    -0.550235
 H    -3.003085    -2.735245    -0.963787
 C    -5.717037    -0.410784     0.547336
 H    -6.495911     0.221184     0.977981
 C    -5.066013    -2.557233    -0.375413
 H    -5.342657    -3.576892    -0.649464
 C    -6.023253    -1.714354     0.178676
 F    -7.260874    -2.168442     0.361453
 C    -1.662370     1.497154     1.647861
 H    -1.705986     0.564904     2.217416
 C    -1.589862     2.646357    -0.465680
 H    -1.571701     2.647110    -1.555626
 C    -1.582292     2.710675     2.322458
 H    -1.574786     2.760858     3.412954
 C    -1.503000     3.869382     0.195771
 H    -1.420900     4.808466    -0.354041
 C    -1.500047     3.885736     1.582693
 F    -1.399742     5.050450     2.220685
