  94
scf done:    -2680.860835
 C    -1.164791    -0.933262    -3.560275
 H    -1.474688    -1.967990    -3.734916
 H    -1.980810    -0.207667    -3.604712
 C     0.163388    -0.536595    -3.848845
 H     0.878673    -1.263865    -4.244234
 H     0.369371     0.495430    -4.145752
 H    -0.572600     0.804608    -1.804865
Rh    -0.101440    -0.705077    -1.699848
 C    -1.844348     0.969964     0.860761
 O    -3.261253    -0.372335    -1.046582
 O    -2.214999    -1.682247     0.846413
 C     1.857401     0.110537     1.176250
 O     3.109409    -0.715327    -1.062683
 O     2.218680     1.651119    -0.971613
 P     1.744678     0.111394    -0.670326
 P    -1.836320    -0.512307    -0.248023
 C     0.515692    -2.514682    -1.671167
 O     0.925070    -3.586813    -1.710248
 C    -1.543218     0.943964     2.240971
 O    -1.225100    -0.232567     2.804111
 C    -1.222544    -0.347073     4.198591
 H    -1.040479    -1.405686     4.422338
 H    -0.418442     0.246823     4.661799
 H    -2.194644    -0.049901     4.629142
 C    -2.068761     2.235723     0.269132
 O    -2.323150     2.235016    -1.051330
 C    -2.459232     3.441774    -1.744677
 H    -2.584221     3.175086    -2.801783
 H    -1.563452     4.076548    -1.638455
 H    -3.345324     4.009551    -1.410680
 C    -2.051179     3.417123     1.018596
 H    -2.241777     4.379759     0.546835
 C    -1.557809     2.126514     2.999160
 H    -1.348730     2.094279     4.066964
 C    -1.813097     3.343123     2.384815
 H    -1.818567     4.257901     2.982868
 C    -4.506452    -0.004409    -0.457293
 H    -4.311187     0.686172     0.384122
 C    -5.233164    -1.228835     0.070286
 H    -4.647005    -1.710772     0.862778
 H    -5.386769    -1.956132    -0.742205
 H    -6.217507    -0.946069     0.474284
 C    -5.295222     0.725736    -1.525471
 H    -4.728704     1.593154    -1.888556
 H    -5.486013     0.056571    -2.378690
 H    -6.262317     1.070780    -1.129547
 C    -1.639656    -2.980412     0.769366
 H    -0.582039    -2.864673     0.478994
 C    -2.354246    -3.816452    -0.275809
 H    -2.307642    -3.320934    -1.256911
 H    -3.413272    -3.952225    -0.007446
 H    -1.884347    -4.807277    -0.368887
 C    -1.699135    -3.578833     2.158962
 H    -2.740397    -3.638272     2.511909
 H    -1.275572    -4.594570     2.159491
 H    -1.129895    -2.956078     2.862052
 C     1.817894     1.240811     2.020275
 O     1.572596     2.438028     1.465751
 C     1.702374     3.596779     2.236834
 H     1.505312     4.439460     1.562358
 H     0.969189     3.628257     3.059699
 H     2.720762     3.698284     2.651127
 C     1.953447    -1.158371     1.790560
 O     1.874188    -2.215796     0.963421
 C     2.090636    -3.511490     1.448309
 H     1.996295    -4.178459     0.582881
 H     1.340652    -3.794717     2.206256
 H     3.100241    -3.617704     1.881396
 C     2.141773    -1.300043     3.169579
 H     2.248408    -2.284968     3.621460
 C     2.021394     1.103381     3.403927
 H     2.034097     1.980846     4.048185
 C     2.199382    -0.157043     3.957022
 H     2.365854    -0.252419     5.033007
 C     4.406428    -0.325297    -0.603861
 H     4.309350     0.584144     0.015443
 C     5.255302    -0.004124    -1.818153
 H     4.804090     0.812890    -2.395655
 H     5.332740    -0.887310    -2.470883
 H     6.269980     0.298058    -1.517039
 C     4.994103    -1.444683     0.234036
 H     4.427400    -1.585569     1.163723
 H     4.977769    -2.387377    -0.334138
 H     6.036812    -1.216421     0.502401
 C     1.680223     2.463238    -2.007743
 H     0.712665     2.025223    -2.311556
 C     2.614846     2.458739    -3.200778
 H     2.744119     1.434441    -3.579541
 H     3.603247     2.859137    -2.924975
 H     2.206577     3.077130    -4.014781
 C     1.438617     3.843768    -1.432896
 H     0.721392     3.783022    -0.602551
 H     2.377524     4.273078    -1.049242
 H     1.039504     4.518523    -2.205812
