  94
scf done:    -4670.066137
 C    -0.707298    -3.564266    -0.544057
 H    -1.427435    -3.982235     0.165689
 H    -1.064392    -3.523000    -1.574923
 C     0.677240    -3.638122    -0.276607
 H     1.034154    -4.102976     0.647291
 H     1.391085    -3.688125    -1.101386
 H     0.287243    -1.427274    -1.505732
Rh    -0.006033    -1.608606     0.053538
 C    -1.990295     0.519273    -2.017149
 C    -3.508925    -1.162117    -0.267849
 C    -2.274354     1.041522     0.846840
 C     2.142388     0.364631     2.007258
 C     3.517754    -1.189342    -0.010144
 C     2.242852     1.067006    -0.838714
 P     1.916917    -0.329775     0.317470
 P    -1.880262    -0.290643    -0.370009
 C    -0.294579    -1.928512     1.908339
 O    -0.451250    -2.169763     3.020773
 C    -1.732385     1.885386    -2.248266
 O    -1.377387     2.619422    -1.184116
 C    -1.168546     3.997029    -1.315194
 H    -0.996030     4.375413    -0.300510
 H    -0.286184     4.215400    -1.941305
 H    -2.052040     4.506012    -1.736641
 C    -2.218972    -0.307734    -3.138118
 O    -2.361359    -1.615408    -2.871537
 C    -2.711866    -2.508233    -3.891986
 H    -2.814922    -3.492299    -3.418466
 H    -1.932034    -2.563940    -4.670414
 H    -3.672674    -2.232089    -4.359148
 C    -2.292509     0.221253    -4.431462
 H    -2.486743    -0.422991    -5.287701
 C    -1.812719     2.422202    -3.541420
 H    -1.629040     3.481935    -3.712327
 C    -2.098691     1.586171    -4.613636
 H    -2.154737     2.006388    -5.620530
 C    -3.670210    -2.131632     0.725565
 H    -2.825327    -2.390885     1.366063
 C    -4.605783    -0.849065    -1.078230
 H    -4.508084    -0.094316    -1.862544
 C    -4.889851    -2.775705     0.914060
 H    -5.009475    -3.530304     1.693018
 C    -5.829488    -1.489860    -0.909401
 H    -6.681388    -1.247296    -1.546984
 C    -5.965053    -2.453175     0.089190
Cl    -7.484888    -3.257664     0.302833
 C    -1.405620     1.249338     1.915227
 H    -0.504927     0.640312     1.996526
 C    -3.432632     1.823918     0.756720
 H    -4.137874     1.666221    -0.062624
 C    -1.663114     2.228566     2.873207
 H    -0.980993     2.375800     3.712327
 C    -3.695652     2.818159     1.690113
 H    -4.590183     3.438617     1.614410
 C    -2.799614     3.018927     2.743548
Cl    -3.107212     4.272804     3.902200
 C     1.868496     1.701435     2.365139
 O     1.491698     2.526415     1.376089
 C     1.332840     3.895494     1.618653
 H     1.184516     4.362787     0.637487
 H     0.453006     4.097731     2.253422
 H     2.230336     4.333906     2.086998
 C     2.412069    -0.550933     3.048312
 O     2.573266    -1.825812     2.659490
 C     2.781153    -2.834466     3.609746
 H     2.861905    -3.772305     3.046735
 H     1.932405    -2.903779     4.310195
 H     3.715189    -2.673664     4.174582
 C     2.491408    -0.140719     4.383110
 H     2.707540    -0.856929     5.174327
 C     1.955109     2.119921     3.700377
 H     1.756732     3.157003     3.967763
 C     2.270661     1.196723     4.690301
 H     2.329187     1.525455     5.730435
 C     4.668518    -1.036243     0.767985
 H     4.640987    -0.425401     1.673187
 C     3.591300    -1.959047    -1.175358
 H     2.699903    -2.069505    -1.797812
 C     5.863375    -1.651522     0.404406
 H     6.760772    -1.536154     1.014658
 C     4.779710    -2.574540    -1.555499
 H     4.834933    -3.173695    -2.465764
 C     5.911257    -2.421511    -0.756232
Cl     7.395187    -3.193115    -1.211704
 C     3.344018     1.917785    -0.673403
 H     4.016456     1.782008     0.177512
 C     1.422146     1.234326    -1.949512
 H     0.581350     0.554210    -2.094407
 C     3.586931     2.949528    -1.569496
 H     4.432945     3.625517    -1.434675
 C     1.662383     2.253792    -2.871100
 H     1.013461     2.380518    -3.738888
 C     2.731299     3.116881    -2.662242
Cl     3.003015     4.426417    -3.768311
