  82
scf done:    -2226.925394
 C    -0.378056    -3.233952    -1.589445
 H    -1.106281    -3.927627    -1.156148
 H    -0.589918    -2.955097    -2.625356
 C     0.963197    -3.268352    -1.124792
 H     1.236971    -3.986495    -0.345257
 H     1.785842    -3.012481    -1.798162
 H     0.508896    -0.879042    -1.745344
Rh     0.015346    -1.499821    -0.365063
 C    -1.537994     1.279986    -1.938088
 C    -3.417686    -0.509209    -0.757803
 C    -1.871566     1.159136     0.920416
 C     1.511757     0.366797     2.252622
 C     3.393186    -0.782956     0.437555
 C     1.839030     1.465581    -0.425576
 P     1.679555    -0.124096     0.475803
 P    -1.686236     0.073715    -0.549845
 C    -0.540584    -2.308197     1.266966
 O    -0.853566    -2.801998     2.257161
 H    -0.583171     1.809340    -1.790234
 C    -1.566027     0.607686    -3.299619
 H    -2.518547     0.082494    -3.470250
 H    -0.754392    -0.130667    -3.382911
 H    -2.352323     2.017341    -1.845805
 H    -1.441527     1.351795    -4.101233
 C    -3.657276    -1.834428    -1.119722
 H    -2.807096    -2.509687    -1.235307
 C    -4.498812     0.366758    -0.590461
 H    -4.312994     1.401973    -0.287124
 C    -4.967761    -2.271451    -1.319432
 H    -5.157014    -3.309728    -1.603029
 C    -5.814559    -0.056996    -0.783214
 C    -6.970587     0.882287    -0.593414
 H    -6.628745     1.890809    -0.321952
 H    -7.573337     0.964612    -1.511824
 H    -7.644029     0.529016     0.203780
 C    -6.032426    -1.392767    -1.153366
 H    -7.056456    -1.745707    -1.307177
 C    -1.612687     2.532535     0.906747
 H    -1.345109     3.040140    -0.020203
 C    -2.208397     0.545919     2.134808
 H    -2.414519    -0.527898     2.152652
 C    -1.667092     3.261885     2.095929
 H    -1.451035     4.333419     2.082352
 C    -2.273702     1.262718     3.330212
 C    -2.652643     0.578463     4.611305
 H    -3.744933     0.602157     4.761224
 H    -2.346071    -0.477467     4.605307
 H    -2.192067     1.067607     5.481876
 C    -1.986383     2.635053     3.295936
 H    -2.015940     3.214921     4.222615
 H     1.249220    -0.570975     2.767985
 C     2.706979     1.025386     2.921064
 H     3.032300     1.934688     2.394125
 H     3.568778     0.343020     2.953184
 H     0.602049     0.987964     2.307880
 H     2.460675     1.308788     3.956409
 C     3.580444    -2.124994     0.783098
 H     2.708882    -2.749990     0.990542
 C     4.508281     0.009509     0.144161
 H     4.368091     1.060538    -0.121927
 C     4.867412    -2.653447     0.845237
 H     5.012012    -3.700906     1.121229
 C     5.805004    -0.513228     0.183863
 C     6.989301     0.339354    -0.170256
 H     6.744592     1.409704    -0.117689
 H     7.839456     0.148123     0.501639
 H     7.333292     0.129298    -1.196752
 C     5.969110    -1.856068     0.544669
 H     6.975569    -2.282272     0.587157
 C     1.563598     2.708251     0.152748
 H     1.302509     2.785766     1.208131
 C     2.152900     1.410361    -1.790231
 H     2.348424     0.436534    -2.248931
 C     1.595193     3.863023    -0.629372
 H     1.374128     4.830877    -0.172141
 C     2.191491     2.557489    -2.585421
 C     2.484980     2.454608    -4.054091
 H     2.770921     3.426845    -4.479733
 H     3.296827     1.739368    -4.252340
 H     1.598526     2.097707    -4.604410
 C     1.904388     3.790469    -1.984232
 H     1.923633     4.701615    -2.588496
