  90
scf done:    -2380.072576
 C    -1.546982    -2.826519    -0.735652
 H    -1.872891    -3.386451     0.146879
 H    -2.366255    -2.380686    -1.308120
 C    -0.338875    -3.185206    -1.388569
 H     0.259404    -4.016441    -1.002780
 H    -0.242080    -3.033757    -2.467262
 H    -0.596202    -0.626801    -1.591845
Rh    -0.063018    -1.349362    -0.269038
 C    -3.062908     0.225644    -0.023670
 C    -1.564174     0.156920     2.536795
 C    -0.851503     2.054362     0.558661
 C     2.510850     1.049946     0.179305
 C     3.502521    -1.335992    -1.058621
 C     1.844926     0.361682    -2.623566
 P     1.932819    -0.332472    -0.911760
 P    -1.366394     0.288695     0.696804
 C     0.506287    -2.223127     1.314740
 O     0.790884    -2.778069     2.284176
 C    -3.322853     0.841813    -1.265091
 O    -2.317905     1.574960    -1.789800
 C    -2.392768     2.015489    -3.113916
 H    -1.421127     2.473244    -3.343273
 H    -2.565256     1.177982    -3.811391
 H    -3.184299     2.772243    -3.256603
 C    -4.057750    -0.631824     0.486450
 O    -3.746059    -1.309675     1.610037
 C    -4.621236    -2.282921     2.102048
 H    -4.127816    -2.731339     2.974031
 H    -4.813455    -3.072084     1.354783
 H    -5.584505    -1.849011     2.422986
 C    -5.289257    -0.792700    -0.161201
 H    -6.054679    -1.445784     0.255237
 C    -4.548144     0.684336    -1.922763
 H    -4.737671     1.183408    -2.872145
 C    -5.525271    -0.124275    -1.355662
 H    -6.484778    -0.248478    -1.862905
 H    -2.438968     0.729569     2.884389
 H    -1.778856    -0.899695     2.737731
 C    -0.292754     0.577834     3.266629
 H    -0.210951     1.676761     3.289855
 H     0.583959     0.226454     2.696833
 C    -0.223991     0.030530     4.683581
 H    -1.094944     0.345026     5.281041
 H    -0.203598    -1.070797     4.676602
 H     0.679993     0.380846     5.206743
 H     0.073478     2.113049     1.153082
 H    -0.554303     2.221910    -0.483142
 C    -1.851937     3.100721     1.022733
 H    -2.093789     2.940232     2.087295
 H    -2.799971     2.973872     0.475268
 C    -1.335174     4.518603     0.829742
 H    -0.378852     4.669578     1.356839
 H    -1.162044     4.729902    -0.238194
 H    -2.048305     5.269246     1.204252
 C     2.415032     2.427734    -0.101655
 O     1.936965     2.775861    -1.314893
 C     1.838273     4.125852    -1.665266
 H     1.446247     4.151037    -2.690649
 H     1.144177     4.672661    -1.004580
 H     2.821077     4.628361    -1.648385
 C     2.945847     0.690447     1.474617
 O     2.983320    -0.632815     1.731518
 C     3.377695    -1.092487     2.996186
 H     3.293210    -2.184786     2.966413
 H     2.713873    -0.711646     3.790328
 H     4.419234    -0.807293     3.223173
 C     3.300053     1.647341     2.432222
 H     3.635187     1.346623     3.423609
 C     2.771311     3.393481     0.849482
 H     2.696423     4.454408     0.616386
 C     3.209855     2.994199     2.105571
 H     3.483597     3.749300     2.846007
 H     4.013798    -1.003081    -1.978140
 H     4.156620    -1.068781    -0.218372
 C     3.277917    -2.839214    -1.078907
 H     2.585563    -3.102422    -1.894918
 H     2.751941    -3.127982    -0.154824
 C     4.573943    -3.622221    -1.215798
 H     5.098540    -3.373358    -2.152845
 H     5.264860    -3.400163    -0.385966
 H     4.391112    -4.707836    -1.215721
 H     0.997727     1.059961    -2.633281
 H     2.754991     0.943907    -2.839012
 C     1.625660    -0.724592    -3.667159
 H     0.765595    -1.338546    -3.356117
 H     2.494176    -1.404171    -3.701639
 C     1.378781    -0.146934    -5.052368
 H     0.481151     0.492984    -5.057489
 H     2.225981     0.471664    -5.390957
 H     1.225219    -0.940493    -5.799822
