 106
scf done:    -2465.500621
 C    -0.386287    -3.687513    -2.023209
 H    -0.868794    -4.502778    -1.475005
 H    -0.969873    -3.314164    -2.869910
 C     1.033492    -3.618681    -2.070478
 H     1.627475    -4.382177    -1.558189
 H     1.522432    -3.191280    -2.950089
 H     0.200474    -1.195703    -2.073400
Rh     0.278693    -2.089922    -0.749281
 O    -1.126946     0.815846    -0.254688
 C    -2.954368    -0.898814    -1.433790
 C    -2.334085    -0.995753     1.393388
 O     1.510703    -0.069195     1.473041
 C     3.612963    -1.181090     0.151588
 C     2.057382     0.916187    -1.088359
 P     1.883387    -0.611832    -0.085393
 P    -1.543206    -0.829100    -0.254249
 C     0.442998    -3.166070     0.818873
 O     0.578732    -3.800752     1.765461
 C    -2.001288     1.855575    -0.353941
 C    -2.564990     2.427119     0.788148
 H    -2.299198     2.032173     1.770427
 C    -2.298198     2.389902    -1.610485
 H    -1.819248     1.960344    -2.492492
 C    -3.463021     3.485161     0.661369
 H    -3.905440     3.918905     1.562435
 C    -3.198670     3.443524    -1.721020
 H    -3.431587     3.844561    -2.711572
 C    -3.811515     4.002200    -0.591019
 C    -4.814480     5.110860    -0.728225
 H    -4.482789     5.867689    -1.455032
 H    -4.991392     5.615856     0.231830
 H    -5.784902     4.724960    -1.082561
 H    -2.572412    -0.417471    -2.350210
 H    -3.040842    -1.967517    -1.692363
 C    -4.306474    -0.321185    -1.027595
 H    -4.778907    -0.976717    -0.276348
 H    -4.181409     0.655867    -0.537281
 C    -5.248826    -0.143972    -2.209748
 H    -5.421998    -1.118343    -2.702069
 H    -4.754450     0.492530    -2.966224
 C    -6.581037     0.483643    -1.825222
 H    -7.073810    -0.146498    -1.063573
 H    -6.386282     1.452401    -1.331014
 C    -7.516967     0.688287    -3.005222
 H    -8.468879     1.146130    -2.695968
 H    -7.753273    -0.267894    -3.499338
 H    -7.062899     1.345346    -3.764617
 H    -1.530236    -0.768367     2.113806
 H    -3.117629    -0.230353     1.515015
 C    -2.896264    -2.389869     1.639705
 H    -3.738671    -2.581650     0.952108
 H    -2.132181    -3.144920     1.392386
 C    -3.359990    -2.599845     3.074320
 H    -4.129590    -1.847939     3.328088
 H    -2.513226    -2.406475     3.757275
 C    -3.907819    -3.996230     3.332533
 H    -4.746809    -4.190010     2.640580
 H    -3.131452    -4.738222     3.075647
 C    -4.366343    -4.209386     4.765964
 H    -4.754674    -5.227284     4.921730
 H    -5.166440    -3.502555     5.039536
 H    -3.537658    -4.057507     5.476146
 C     1.942807     1.108594     2.007321
 C     1.202624     2.275190     1.798724
 H     0.282534     2.212361     1.217206
 C     3.103807     1.156091     2.779222
 H     3.655973     0.233494     2.967905
 C     1.659655     3.484734     2.309502
 H     1.077900     4.392730     2.125764
 C     3.547466     2.375968     3.286883
 H     4.464675     2.404268     3.881815
 C     2.848205     3.564179     3.048259
 C     3.354182     4.884924     3.552426
 H     3.785963     5.482940     2.732387
 H     4.137180     4.753745     4.312612
 H     2.545255     5.484107     3.997395
 H     4.224479    -0.358969     0.559422
 H     3.562585    -1.967838     0.922883
 C     4.214630    -1.734504    -1.132962
 H     3.533410    -2.498939    -1.542655
 H     4.266279    -0.937170    -1.895746
 C     5.601927    -2.329582    -0.938525
 H     5.550086    -3.127959    -0.175993
 H     6.279113    -1.561450    -0.521902
 C     6.201511    -2.893035    -2.219260
 H     5.515821    -3.653850    -2.632142
 H     6.248674    -2.092321    -2.978697
 C     7.582827    -3.497259    -2.025922
 H     7.988731    -3.895205    -2.968333
 H     7.558164    -4.325037    -1.298940
 H     8.297043    -2.748895    -1.645890
 H     2.031737     0.556491    -2.130006
 H     1.095527     1.434631    -0.945106
 C     3.244825     1.843504    -0.851523
 H     3.451952     1.947358     0.223848
 H     4.156300     1.404375    -1.292617
 C     3.017812     3.235689    -1.424131
 H     2.073700     3.635949    -1.012201
 H     2.868227     3.174423    -2.517721
 C     4.147811     4.205192    -1.109409
 H     4.282484     4.244293    -0.013500
 H     5.095250     3.806203    -1.513515
 C     3.909692     5.606778    -1.647043
 H     4.740095     6.285585    -1.399522
 H     2.987766     6.041643    -1.227940
 H     3.799880     5.602278    -2.743577
