 108
scf done:    -2767.246176
 C    -0.290002    -3.231546    -2.618476
 H    -0.901385    -4.073209    -2.277383
 H    -0.701323    -2.707059    -3.485651
 C     1.115592    -3.260518    -2.416657
 H     1.569896    -4.125049    -1.921619
 H     1.773421    -2.763587    -3.136437
 H     0.440536    -0.850388    -2.216946
Rh     0.228982    -1.878402    -1.026431
 C    -2.340392     0.623623    -1.583192
 C    -3.178279    -2.021807    -0.833695
 C    -1.936075    -0.293681     1.264338
 C     2.074442     0.072689     1.411466
 C     3.420269    -2.126106     0.241764
 C     3.080187     0.256552    -1.329559
 P     2.118395    -0.836216    -0.181881
 P    -1.787364    -0.790796    -0.543007
 C    -0.001632    -3.139364     0.378408
 O    -0.151452    -3.900122     1.229579
 C    -1.754619     0.780740    -2.847140
 H    -0.959951     0.095189    -3.151388
 C    -3.367925     1.498105    -1.208469
 H    -3.872272     1.376527    -0.252389
 C    -2.170633     1.804336    -3.692564
 H    -1.702000     1.920036    -4.672744
 C    -3.784285     2.543542    -2.041539
 C    -4.863385     3.475568    -1.573006
 H    -5.765947     2.918775    -1.275530
 H    -4.533698     4.035509    -0.683266
 H    -5.145357     4.198015    -2.351709
 C    -3.170522     2.688279    -3.288539
 H    -3.483458     3.498490    -3.953199
 H    -3.294657    -2.003685    -1.928256
 H    -2.735392    -2.995659    -0.590963
 C    -4.491375    -1.829504    -0.143776
 C    -5.433025    -0.932702    -0.664821
 H    -5.201564    -0.407279    -1.593801
 C    -4.807837    -2.553122     1.027819
 C    -3.880646    -3.593102     1.591783
 H    -2.881446    -3.197808     1.830335
 H    -3.723052    -4.419656     0.879748
 H    -4.293303    -4.025024     2.513601
 C    -6.646470    -0.700295    -0.025160
 H    -7.358334     0.012754    -0.447670
 C    -6.037998    -2.314481     1.652420
 H    -6.284939    -2.873778     2.559056
 C    -6.948233    -1.389032     1.147114
 H    -7.897770    -1.220227     1.660497
 H    -2.300494    -1.208639     1.754597
 H    -0.888423    -0.174947     1.568290
 C    -2.737119     0.890297     1.716140
 C    -4.051515     0.730078     2.167267
 H    -4.483747    -0.271217     2.204540
 C    -2.175465     2.184600     1.670920
 C    -0.761882     2.395674     1.225847
 H    -0.559629     1.914394     0.258615
 H    -0.045166     1.969966     1.945774
 H    -0.530056     3.463416     1.114319
 C    -4.829791     1.825631     2.531648
 H    -5.858934     1.671889     2.864355
 C    -2.970115     3.273428     2.043017
 H    -2.538860     4.277445     1.997956
 C    -4.289154     3.107014     2.461503
 H    -4.888876     3.977524     2.738701
 C     1.392976    -0.532117     2.478441
 H     0.882815    -1.487162     2.329555
 C     2.716231     1.291717     1.629334
 H     3.249506     1.780427     0.815706
 C     1.364535     0.078915     3.727141
 H     0.830467    -0.396792     4.553104
 C     2.685123     1.927725     2.877173
 C     3.391382     3.238811     3.060925
 H     4.483413     3.108433     2.985819
 H     3.098491     3.957227     2.279852
 H     3.171841     3.685615     4.040559
 C     2.000755     1.305919     3.924008
 H     1.960641     1.787942     4.904496
 H     2.984483    -2.670157     1.094101
 H     3.425033    -2.823832    -0.606145
 C     4.780815    -1.592676     0.566019
 C     5.028443    -1.045786     1.832588
 H     4.241603    -1.083756     2.588994
 C     5.809662    -1.570805    -0.402158
 C     5.629996    -2.198280    -1.755812
 H     4.799224    -1.748111    -2.320252
 H     5.410501    -3.275085    -1.674334
 H     6.540262    -2.089651    -2.361152
 C     6.248473    -0.450838     2.141052
 H     6.411741    -0.029163     3.135666
 C     7.029300    -0.967340    -0.075149
 H     7.824826    -0.948666    -0.825282
 C     7.252445    -0.400624     1.177434
 H     8.214478     0.065808     1.402647
 H     4.125140     0.232284    -0.995870
 H     3.035024    -0.283906    -2.290135
 C     2.631940     1.681100    -1.523717
 C     1.286009     1.980576    -1.747436
 H     0.567558     1.160755    -1.772302
 C     3.576256     2.731145    -1.496494
 C     5.040766     2.473082    -1.271915
 H     5.465408     1.815185    -2.046745
 H     5.238367     1.979648    -0.304850
 H     5.608509     3.413473    -1.285507
 C     0.851716     3.289568    -1.933737
 H    -0.209665     3.484493    -2.106431
 C     3.122499     4.042781    -1.677374
 H     3.850572     4.858576    -1.652291
 C     1.775911     4.329498    -1.892329
 H     1.453808     5.364360    -2.031655
