  96
scf done:    -2610.111250
 C     0.825373     0.279317     3.572172
 H     1.226332    -0.591165     4.100330
 H     1.519116     1.122543     3.516016
 C    -0.573512     0.498741     3.560542
 H    -1.231162    -0.202684     4.082649
 H    -0.974285     1.513659     3.494002
 H     0.290772     1.354789     1.377474
Rh     0.048992    -0.196057     1.616973
 C     1.974378     1.198771    -0.917877
 C     3.536238    -0.230346     1.030480
 C     2.167504    -1.676107    -0.935985
 C    -2.202698    -1.296102    -0.886604
 C    -3.374054     0.394697     1.086655
 C    -1.751543     1.526539    -0.963848
 P    -1.777306     0.114668     0.214006
 P     1.888671    -0.252044     0.202278
 C    -0.274991    -2.026912     2.040706
 O    -0.508579    -3.106144     2.359547
 C     1.582469     1.130891    -2.257461
 H     1.295635     0.175018    -2.699894
 C     2.336441     2.439686    -0.379745
 H     2.614670     2.503474     0.676497
 C     1.562872     2.286349    -3.036350
 H     1.234003     2.231157    -4.076529
 C     2.363079     3.598019    -1.159380
 C     2.840532     4.896826    -0.576414
 H     2.539728     5.001539     0.476515
 H     3.941328     4.957928    -0.605439
 H     2.449747     5.760425    -1.132992
 C     1.960714     3.505660    -2.497511
 H     1.952915     4.404051    -3.120992
 C     3.674593    -0.983525     2.198943
 H     2.799899    -1.489220     2.613537
 C     4.655710     0.427595     0.507079
 H     4.558944     1.020722    -0.405940
 C     4.915666    -1.076948     2.824967
 H     5.019880    -1.669342     3.737327
 C     5.903979     0.353455     1.131410
 C     7.093811     1.076134     0.568006
 H     7.924498     0.381648     0.365792
 H     6.844922     1.588160    -0.372118
 H     7.471199     1.833411     1.273935
 C     6.018977    -0.411186     2.299348
 H     6.987430    -0.482108     2.802969
 C     3.202356    -1.667795    -1.883538
 H     3.843460    -0.790228    -1.990896
 C     1.374356    -2.813619    -0.809012
 H     0.562070    -2.813437    -0.081283
 C     3.411840    -2.781771    -2.686804
 H     4.214638    -2.773804    -3.428289
 C     1.583448    -3.953180    -1.598649
 C     0.710540    -5.159350    -1.417178
 H     0.778116    -5.543149    -0.387124
 H    -0.346765    -4.906095    -1.595490
 H     0.991883    -5.970912    -2.102888
 C     2.609615    -3.916822    -2.543946
 H     2.789873    -4.791038    -3.175927
 C    -1.328699    -1.601700    -1.938935
 H    -0.444694    -0.985177    -2.107011
 C    -3.324772    -2.101685    -0.683395
 H    -4.018775    -1.866727     0.127290
 C    -1.591634    -2.679513    -2.774945
 H    -0.907452    -2.904996    -3.596581
 C    -3.590701    -3.206432    -1.504357
 C    -4.787447    -4.073121    -1.238451
 H    -4.612237    -4.729058    -0.369708
 H    -5.677771    -3.467894    -1.010693
 H    -5.020513    -4.716565    -2.098628
 C    -2.714015    -3.480138    -2.557492
 H    -2.912402    -4.329863    -3.216726
 C    -3.631227    -0.336484     2.252150
 H    -2.869331    -1.015690     2.639475
 C    -4.345812     1.278471     0.608596
 H    -4.151833     1.852721    -0.300656
 C    -4.850728    -0.194509     2.907810
 H    -5.052319    -0.775292     3.811266
 C    -5.567812     1.447306     1.269999
 C    -6.578633     2.435465     0.763786
 H    -6.421917     3.426595     1.221598
 H    -6.503600     2.564730    -0.325592
 H    -7.605404     2.123283     1.004242
 C    -5.809853     0.692490     2.422707
 H    -6.761785     0.804712     2.949466
 C    -2.309781     1.450706    -2.244446
 H    -2.732580     0.511978    -2.606341
 C    -1.230324     2.746189    -0.519705
 H    -0.777618     2.793750     0.474513
 C    -2.328145     2.580522    -3.060823
 H    -2.754229     2.514768    -4.065175
 C    -1.268001     3.891985    -1.316728
 C    -0.751597     5.203777    -0.804314
 H    -1.583260     5.870104    -0.521028
 H    -0.118709     5.065296     0.082586
 H    -0.159692     5.728638    -1.568975
 C    -1.815526     3.789495    -2.601430
 H    -1.837086     4.670700    -3.249182
