 104
scf done:    -2839.061310
 C    -0.371167    -2.594487     2.959607
 H    -0.729410    -2.303968     3.951366
 H    -0.988607    -3.354655     2.474349
 C     1.010891    -2.522354     2.654253
 H     1.717511    -2.182808     3.418840
 H     1.442553    -3.215640     1.926977
 H    -0.292618    -1.891012     0.481596
Rh    -0.005976    -0.884073     1.680804
 O    -3.425216    -0.272512     1.121550
 C    -2.022848     1.907426     1.366385
 C    -1.832614     0.306049    -1.080060
 O     1.127595     1.671525     0.052424
 C     3.225375     0.342590     1.347733
 C     2.115267    -0.437792    -1.291305
 P     1.630620     0.086155     0.415135
 P    -1.841961     0.160117     0.786650
 C     0.202634     0.304789     3.162531
 O     0.319791     1.031833     4.041692
 C    -4.053460    -1.448991     0.828968
 C    -3.414362    -2.686830     0.890758
 H    -2.361854    -2.725424     1.168408
 C    -5.406504    -1.370778     0.491744
 H    -5.877449    -0.388368     0.438633
 C    -4.130234    -3.843662     0.588194
 H    -3.622748    -4.810767     0.631317
 C    -6.110664    -2.532946     0.197661
 H    -7.165315    -2.464086    -0.079756
 C    -5.476838    -3.775626     0.237559
 H    -6.031926    -4.685462    -0.001043
 H    -2.219968     1.809310     2.445665
 H    -1.013218     2.327983     1.259293
 C    -3.073073     2.741489     0.697849
 C    -4.419099     2.545605     1.035049
 H    -4.663719     1.804487     1.797534
 C    -2.740628     3.706025    -0.277857
 C    -1.314256     4.022690    -0.628386
 H    -0.750150     3.139900    -0.962200
 H    -0.765088     4.424483     0.238717
 H    -1.263926     4.773907    -1.428008
 C    -5.435040     3.253046     0.401489
 H    -6.477328     3.076249     0.677206
 C    -3.777661     4.405098    -0.908633
 H    -3.523397     5.147992    -1.669558
 C    -5.113422     4.181715    -0.586122
 H    -5.899849     4.741039    -1.098371
 H    -1.688578     1.374345    -1.290706
 H    -0.926528    -0.221305    -1.400855
 C    -3.044967    -0.195239    -1.808189
 C    -4.136151     0.659081    -1.995940
 H    -4.079918     1.683993    -1.624401
 C    -3.103891    -1.516264    -2.297339
 C    -1.937529    -2.452636    -2.169018
 H    -1.555649    -2.498372    -1.138788
 H    -1.095822    -2.138616    -2.810183
 H    -2.217965    -3.472042    -2.466391
 C    -5.292035     0.219860    -2.633548
 H    -6.133975     0.904173    -2.762398
 C    -4.275768    -1.941737    -2.930424
 H    -4.331964    -2.970310    -3.296236
 C    -5.365655    -1.091235    -3.095848
 H    -6.270902    -1.455146    -3.587882
 C     1.911234     2.733532    -0.283935
 C     2.285610     2.962356    -1.610396
 H     1.955498     2.272329    -2.388043
 C     2.276253     3.642791     0.713314
 H     1.939747     3.466155     1.737315
 C     3.065092     4.073515    -1.924457
 H     3.362958     4.244612    -2.961566
 C     3.051776     4.753610     0.388785
 H     3.339502     5.457732     1.172895
 C     3.458835     4.966930    -0.928321
 H     4.070407     5.835710    -1.180313
 H     3.070470     1.305396     1.861009
 H     3.171535    -0.424949     2.130471
 C     4.564155     0.317037     0.668218
 C     5.092171     1.481832     0.095521
 H     4.509219     2.403385     0.124859
 C     5.335336    -0.866087     0.656098
 C     4.845467    -2.132340     1.293828
 H     3.873805    -2.448584     0.886409
 H     4.720495    -2.012986     2.382889
 H     5.555329    -2.953257     1.127900
 C     6.354386     1.494134    -0.492065
 H     6.740954     2.418572    -0.927018
 C     6.599018    -0.835216     0.055656
 H     7.194206    -1.752161     0.042983
 C     7.112462     0.326437    -0.514911
 H     8.104298     0.318201    -0.973155
 H     1.179798    -0.345080    -1.869552
 H     2.804020     0.331051    -1.663471
 C     2.715584    -1.808324    -1.460941
 C     2.064024    -2.934772    -0.944561
 H     1.117435    -2.796863    -0.418404
 C     3.921987    -1.975892    -2.173233
 C     4.614009    -0.824248    -2.841439
 H     4.867655    -0.022914    -2.132505
 H     3.980266    -0.381539    -3.627672
 H     5.549113    -1.152644    -3.314176
 C     2.608604    -4.209794    -1.072197
 H     2.082137    -5.070215    -0.652614
 C     4.459220    -3.263501    -2.281541
 H     5.400598    -3.393826    -2.822252
 C     3.823377    -4.373584    -1.731346
 H     4.270643    -5.365378    -1.832507
