  98
scf done:    -3529.714910
 C     0.648926    -0.978454    -3.941178
 H     1.261297    -0.267207    -4.503147
 H     1.115128    -1.955997    -3.790216
 C    -0.762477    -0.865618    -3.962800
 H    -1.235244    -0.069612    -4.545505
 H    -1.383611    -1.754889    -3.826869
 H    -0.167021    -1.680074    -1.648849
Rh    -0.024872    -0.161492    -2.061520
 C     2.695099    -1.822446    -0.578773
 O     2.900815     0.888818    -1.367238
 O     1.743427     0.265955     0.845153
 C    -1.767154     0.424962     1.039979
 O    -2.923751     1.253210    -1.245781
 O    -2.765087    -1.322215    -0.882661
 P    -1.859341     0.049187    -0.767632
 P     1.825926    -0.212893    -0.764063
 C     0.079517     1.690756    -2.578482
 O     0.101426     2.805668    -2.840131
 C     1.910289    -2.835931     0.012081
 O     0.736820    -2.421901     0.512379
 C    -0.220846    -3.346817     0.950407
 H    -1.133123    -2.772745     1.153863
 H    -0.438530    -4.095554     0.170852
 H     0.109473    -3.857872     1.871150
 C     3.969785    -2.166013    -1.063424
 O     4.728772    -1.172414    -1.559966
 C     6.025757    -1.459258    -2.007416
 H     6.465350    -0.502665    -2.313820
 H     6.017284    -2.147911    -2.869375
 H     6.646688    -1.893275    -1.205229
 C     4.419703    -3.492064    -0.995381
 H     5.402478    -3.765095    -1.375546
 C     2.353640    -4.158569     0.082693
 H     1.738954    -4.930467     0.543561
 C     3.607009    -4.468283    -0.431073
 H     3.967816    -5.498301    -0.381091
 C     3.971233     1.589582    -0.909377
 C     5.012874     1.807832    -1.816168
 H     4.929485     1.369269    -2.811344
 C     4.024406     2.178321     0.356890
 H     3.198841     2.039709     1.052171
 C     6.113540     2.576826    -1.456315
 H     6.932685     2.760582    -2.154256
 C     5.132481     2.940702     0.724663
 H     5.194936     3.400345     1.712713
 C     6.167033     3.127971    -0.180525
 F     7.225858     3.859336     0.172301
 C     2.290077    -0.371782     1.924174
 C     1.431444    -0.751273     2.956732
 H     0.365713    -0.551357     2.852469
 C     3.658998    -0.629891     2.022847
 H     4.330981    -0.334762     1.216569
 C     1.935312    -1.380124     4.089865
 H     1.281339    -1.680989     4.910444
 C     4.166657    -1.268609     3.152823
 H     5.232084    -1.483948     3.249172
 C     3.299821    -1.636187     4.172546
 F     3.784445    -2.247251     5.255806
 C    -2.331820    -0.298961     2.107880
 O    -3.058941    -1.393449     1.805187
 C    -3.742498    -2.068468     2.827388
 H    -4.331431    -2.852700     2.337137
 H    -3.046890    -2.530745     3.548833
 H    -4.428247    -1.395648     3.369042
 C    -1.042343     1.597191     1.352311
 O    -0.575128     2.281913     0.299903
 C     0.187877     3.443028     0.497963
 H     0.497556     3.780839    -0.497660
 H     1.084924     3.232824     1.101606
 H    -0.410028     4.233602     0.982056
 C    -0.871908     2.027067     2.671827
 H    -0.313199     2.933803     2.895351
 C    -2.158780     0.124939     3.433121
 H    -2.595284    -0.436306     4.257078
 C    -1.436376     1.282751     3.697506
 H    -1.309658     1.609916     4.731908
 C    -3.541568     2.174867    -0.447743
 C    -3.255906     3.522334    -0.672418
 H    -2.543783     3.779850    -1.458192
 C    -4.442663     1.804652     0.552098
 H    -4.669118     0.750284     0.715898
 C    -3.862870     4.503165     0.105512
 H    -3.658133     5.563743    -0.051681
 C    -5.046791     2.783300     1.337880
 H    -5.750153     2.519822     2.129536
 C    -4.747366     4.119637     1.107847
 F    -5.323132     5.057074     1.862313
 C    -4.083685    -1.642693    -0.897298
 C    -4.427188    -2.901982    -0.395293
 H    -3.633415    -3.533116     0.006487
 C    -5.070348    -0.834741    -1.469404
 H    -4.798316     0.123862    -1.907675
 C    -5.746556    -3.339659    -0.425654
 H    -6.029975    -4.321930    -0.042592
 C    -6.395598    -1.267296    -1.490026
 H    -7.179864    -0.647384    -1.928283
 C    -6.723046    -2.508498    -0.963448
 F    -7.992333    -2.919989    -0.985587
