 108
scf done:    -2767.245225
 C    -0.265116     3.188216    -1.937537
 H    -0.911693     3.184155    -2.821212
 H    -0.603465     3.862760    -1.144740
 C     1.120929     2.928414    -2.089781
 H     1.521798     2.709872    -3.084707
 H     1.836279     3.392283    -1.406468
 H     0.445903     2.027665     0.157113
Rh     0.177882     1.219367    -1.177216
 C    -0.975515     0.266189     1.877369
 C    -3.119554     1.499836     0.211586
 C    -2.273095    -1.194595    -0.292920
 C     1.749658    -1.795776    -0.030155
 C     3.363289    -0.196692    -1.738038
 C     2.927877     0.762044     0.992715
 P     2.020983    -0.001206    -0.442825
 P    -1.567030     0.459650     0.139020
 C    -0.245883     0.337380    -2.813211
 O    -0.539601    -0.170607    -3.802370
 C    -0.493399    -0.993189     2.265965
 H    -0.599155    -1.849073     1.599304
 C    -0.819964     1.357373     2.763003
 C    -1.276618     2.747833     2.430174
 H    -2.372354     2.837166     2.461745
 H    -0.943581     3.038341     1.420878
 H    -0.867336     3.471862     3.147228
 C     0.129959    -1.190747     3.494297
 H     0.494257    -2.186152     3.758333
 C    -0.192961     1.135179     3.995811
 H    -0.071636     1.981267     4.678072
 C     0.283371    -0.118685     4.368298
 H     0.771189    -0.254355     5.336349
 H    -3.652922     1.302498     1.152433
 H    -2.787841     2.546377     0.211176
 C    -4.019827     1.238384    -0.962734
 C    -3.612051     1.561117    -2.264612
 H    -2.635863     2.023766    -2.417418
 C    -5.271028     0.645892    -0.778610
 H    -5.589834     0.379670     0.233503
 C    -4.438947     1.275354    -3.345644
 H    -4.110037     1.521453    -4.358261
 C    -6.120139     0.362689    -1.854985
 C    -7.458765    -0.270581    -1.610987
 H    -7.355543    -1.179641    -0.998212
 H    -8.128518     0.412843    -1.064058
 H    -7.955150    -0.543009    -2.553091
 C    -5.683451     0.678298    -3.144309
 H    -6.327288     0.457211    -4.000201
 H    -2.464989    -1.115811    -1.374442
 H    -1.441174    -1.910472    -0.205585
 C    -3.506257    -1.723307     0.390916
 C    -4.401132    -2.501440    -0.357195
 H    -4.198153    -2.682798    -1.415808
 C    -3.801709    -1.488017     1.735706
 H    -3.118737    -0.888352     2.340208
 C    -5.548228    -3.022970     0.229231
 H    -6.234180    -3.630782    -0.366348
 C    -4.960066    -1.993754     2.340488
 C    -5.248235    -1.687782     3.782347
 H    -5.534061    -0.631112     3.913959
 H    -6.070406    -2.305003     4.170992
 H    -4.361934    -1.860799     4.411762
 C    -5.831631    -2.767935     1.571227
 H    -6.738512    -3.175751     2.026018
 C     0.858051    -2.398635    -0.930895
 H     0.406322    -1.777433    -1.706476
 C     2.343793    -2.603717     0.968089
 C     3.381892    -2.138516     1.947035
 H     3.001383    -1.355937     2.617552
 H     4.269145    -1.747128     1.428442
 H     3.712071    -2.979227     2.571685
 C     0.522142    -3.747062    -0.866129
 H    -0.174121    -4.172215    -1.592544
 C     1.961464    -3.952061     1.041190
 H     2.405024    -4.570802     1.826076
 C     1.065542    -4.529388     0.147352
 H     0.802294    -5.585690     0.239961
 H     2.830712    -0.564980    -2.627747
 H     3.700687     0.823991    -1.971907
 C     4.486861    -1.110896    -1.357991
 C     5.663176    -0.632558    -0.762274
 H     5.815889     0.441238    -0.639166
 C     4.351974    -2.493365    -1.531201
 H     3.446303    -2.881607    -2.004799
 C     6.648878    -1.516436    -0.332029
 H     7.561264    -1.128719     0.127605
 C     5.324166    -3.397478    -1.092546
 C     5.104975    -4.872901    -1.258152
 H     4.215337    -5.197478    -0.694486
 H     4.929819    -5.134852    -2.313392
 H     5.967037    -5.454090    -0.902122
 C     6.476836    -2.891172    -0.483669
 H     7.250071    -3.580382    -0.133716
 H     2.309330     0.536155     1.873972
 H     3.897556     0.262824     1.112777
 C     3.115452     2.246192     0.870368
 C     4.129704     2.797267     0.078116
 H     4.825161     2.145342    -0.451292
 C     2.262877     3.118757     1.552395
 H     1.488816     2.692548     2.194299
 C     4.263276     4.177429    -0.042353
 H     5.059058     4.593225    -0.664913
 C     2.373830     4.508247     1.436928
 C     1.409821     5.411546     2.149861
 H     1.231793     5.075564     3.182608
 H     1.777199     6.446754     2.186153
 H     0.432921     5.423353     1.638976
 C     3.386197     5.029009     0.624730
 H     3.492148     6.112214     0.521243
