  80
scf done:    -2000.847966
 C     0.422623    -3.689333     0.934854
 H     0.530260    -4.428865     0.134774
 H     1.303991    -3.607249     1.578424
 C    -0.869096    -3.438653     1.479393
 H    -1.731079    -3.990338     1.089552
 H    -0.965153    -3.159904     2.532945
 H     0.390785    -1.286089     1.621358
Rh    -0.269127    -1.774321     0.264038
 C     1.957060     0.878103     0.512999
 C     3.166466    -1.622753    -0.256949
 C     1.625028     0.084238    -2.255265
 C    -1.678952     1.154512    -0.910216
 C    -3.572113    -0.525072     0.462697
 C    -1.499396     1.112304     1.993135
 P    -1.772080    -0.000640     0.519938
 P     1.608944    -0.611271    -0.519012
 C    -1.111761    -2.517710    -1.266653
 O    -1.678196    -3.036872    -2.123985
 C     1.941748     2.189761     0.025779
 H     1.770860     2.388843    -1.031322
 C     2.172115     0.686914     1.885632
 H     2.160099    -0.329809     2.287743
 C     2.113928     3.267430     0.894559
 H     2.083810     4.286438     0.500355
 C     2.355082     1.752910     2.768901
 C     2.590958     1.498876     4.229652
 H     1.997277     0.644686     4.587251
 H     3.650733     1.264234     4.423929
 H     2.331782     2.376480     4.838998
 C     2.313547     3.055314     2.254665
 H     2.437688     3.907199     2.928820
 H     2.957489    -2.022569     0.750555
 C     3.198962    -2.810968    -1.211311
 H     3.945176    -3.548725    -0.875944
 H     2.220365    -3.310897    -1.257141
 H     3.480852    -2.502259    -2.229926
 C     4.499428    -0.886405    -0.204258
 H     4.461113    -0.004592     0.451397
 H     5.276533    -1.561961     0.189905
 H     4.831126    -0.556434    -1.197779
 H     0.903653     0.915782    -2.162622
 C     2.961054     0.636616    -2.744568
 H     2.805089     1.233206    -3.658398
 H     3.463232     1.276629    -2.006346
 H     3.651251    -0.179070    -3.006593
 C     1.037220    -0.880887    -3.277432
 H     0.024632    -1.195596    -3.003168
 H     0.976301    -0.383294    -4.258562
 H     1.652815    -1.784112    -3.399096
 C    -2.065685     0.674106    -2.171319
 H    -2.483063    -0.330043    -2.273870
 C    -1.135344     2.441013    -0.831808
 H    -0.819771     2.844288     0.130662
 C    -1.905082     1.460083    -3.306665
 H    -2.212472     1.071663    -4.280663
 C    -0.951734     3.239297    -1.968487
 C    -0.314079     4.593705    -1.851197
 H    -0.432510     5.008494    -0.840070
 H     0.768506     4.540003    -2.058696
 H    -0.744516     5.307314    -2.568903
 C    -1.344183     2.733200    -3.210499
 H    -1.213963     3.341774    -4.109601
 H    -3.550709    -1.215604    -0.398962
 C    -3.929788    -1.356408     1.689272
 H    -4.888040    -1.875674     1.529475
 H    -3.158709    -2.111302     1.897756
 H    -4.047152    -0.723564     2.582397
 C    -4.611801     0.551124     0.174271
 H    -4.334068     1.180450    -0.683278
 H    -5.578604     0.075543    -0.059219
 H    -4.774418     1.208102     1.039135
 H    -0.526711     1.565761     1.729799
 C    -2.526856     2.221306     2.199797
 H    -2.133608     2.964585     2.912507
 H    -2.787881     2.749575     1.272424
 H    -3.455814     1.820905     2.632252
 C    -1.274293     0.334715     3.285758
 H    -0.541157    -0.470461     3.140202
 H    -0.897920     1.016632     4.065185
 H    -2.205115    -0.116134     3.660214
