 112
scf done:    -3440.337662
 C    -1.063854     0.191497    -3.481780
 H    -1.472356    -0.715343    -3.939280
 H    -1.785904     1.012306    -3.434790
 C     0.323406     0.475290    -3.584085
 H     0.974281    -0.211902    -4.131821
 H     0.670866     1.512411    -3.582614
 H    -0.270998     1.337502    -1.317611
Rh    -0.102723    -0.206307    -1.595975
 O    -2.132667     1.069470     0.710393
 C    -3.506271    -0.828850    -0.869667
 C    -1.967992    -1.408843     1.411199
 O     2.415124    -1.362520     0.193491
 C     3.253163     0.896127    -0.965637
 C     1.331225     0.978792     1.304070
 P     1.738468     0.100451    -0.261397
 P    -1.875317    -0.368576    -0.109321
 C     0.274191    -2.034741    -2.013689
 O     0.587685    -3.102383    -2.301979
 C    -2.360987     2.324000     0.291594
 C    -2.426826     2.724651    -1.048525
 H    -2.280035     1.987537    -1.835037
 C    -2.581494     3.270137     1.300612
 H    -2.530948     2.931369     2.336098
 C    -2.705844     4.052496    -1.362103
 H    -2.758260     4.347009    -2.413554
 C    -2.863928     4.594166     0.975242
 H    -3.039171     5.317407     1.776239
 C    -2.925498     4.998758    -0.359768
 H    -3.147542     6.037045    -0.615792
 C    -3.532824    -2.126038    -1.420621
 O    -2.431552    -2.862521    -1.184840
 C    -2.370975    -4.195882    -1.602534
 H    -1.399906    -4.578030    -1.267528
 H    -3.179492    -4.796111    -1.150683
 H    -2.424796    -4.283333    -2.701263
 C    -4.667384    -0.044693    -0.998973
 O    -4.683505     1.146380    -0.378418
 C    -5.682237     2.081184    -0.664515
 H    -5.389864     3.006811    -0.151136
 H    -6.670091     1.755204    -0.292291
 H    -5.756816     2.283301    -1.746903
 C    -5.769905    -0.511255    -1.731238
 H    -6.659082     0.108727    -1.838846
 C    -4.631085    -2.603906    -2.141677
 H    -4.625187    -3.604795    -2.571120
 C    -5.738045    -1.777800    -2.299649
 H    -6.601481    -2.135453    -2.865657
 C    -2.995156    -1.178178     2.355462
 O    -3.934185    -0.288994     2.009301
 C    -4.947192     0.061478     2.900885
 H    -5.550905     0.821579     2.389276
 H    -5.591527    -0.798664     3.156161
 H    -4.542423     0.493122     3.833264
 C    -1.045542    -2.441167     1.677864
 O    -0.158807    -2.738461     0.723142
 C     0.794461    -3.738602     0.944353
 H     1.371767    -3.818654     0.018101
 H     0.315782    -4.709896     1.161795
 H     1.481800    -3.469844     1.761156
 C    -1.090632    -3.143454     2.893625
 H    -0.363670    -3.925358     3.104949
 C    -3.032416    -1.869869     3.573050
 H    -3.814770    -1.669601     4.303764
 C    -2.070224    -2.839317     3.828277
 H    -2.097075    -3.386457     4.774234
 C     3.667030    -1.576259     0.660835
 C     4.336903    -0.689277     1.508988
 H     3.867277     0.253093     1.793764
 C     4.286103    -2.768895     0.272493
 H     3.753463    -3.429206    -0.414242
 C     5.612302    -1.010322     1.968391
 H     6.131206    -0.309818     2.627965
 C     5.557415    -3.081776     0.745329
 H     6.031484    -4.016918     0.436193
 C     6.228393    -2.205231     1.598110
 H     7.227873    -2.448492     1.965308
 C     3.973923     1.996395    -0.458170
 O     3.673178     2.412335     0.784223
 C     4.245862     3.576549     1.300924
 H     3.762304     3.749708     2.271441
 H     5.334429     3.468750     1.452580
 H     4.062400     4.448257     0.648908
 C     3.712861     0.323117    -2.173552
 O     3.126651    -0.829495    -2.530711
 C     3.482817    -1.464692    -3.724409
 H     2.847786    -2.356336    -3.797136
 H     4.542389    -1.774319    -3.717287
 H     3.299721    -0.820434    -4.601613
 C     4.738528     0.911869    -2.921823
 H     5.063588     0.473092    -3.863908
 C     4.997730     2.594902    -1.205093
 H     5.534264     3.458762    -0.815407
 C     5.354954     2.057137    -2.434845
 H     6.155375     2.524733    -3.013279
 C     0.964139     2.334889     1.180783
 O     1.099280     2.850490    -0.050076
 C     0.773988     4.189796    -0.296841
 H     0.929154     4.349023    -1.370925
 H    -0.277072     4.407055    -0.052802
 H     1.431546     4.873580     0.269351
 C     1.199185     0.372293     2.566696
 O     1.541788    -0.926255     2.683484
 C     1.703549    -1.476344     3.959501
 H     2.131967    -2.476518     3.814068
 H     0.740999    -1.578016     4.488305
 H     2.401151    -0.878474     4.571251
 C     0.739996     1.112617     3.666958
 H     0.629529     0.637361     4.640086
 C     0.524681     3.079918     2.276406
 H     0.247433     4.126153     2.160836
 C     0.413637     2.452624     3.512262
 H     0.056096     3.020656     4.374712
