  80
scf done:    -2373.496029
 C     0.402732    -0.714998    -3.650930
 H     0.235245    -1.769686    -3.889212
 H    -0.387808    -0.042407    -3.993906
 C     1.720321    -0.234069    -3.478417
 H     2.569993    -0.915678    -3.575640
 H     1.953961     0.811305    -3.695023
 H     0.263991     1.080017    -1.847207
Rh     0.760250    -0.400178    -1.538348
 O    -1.366794     0.756515     0.605058
 O    -2.436130     0.340578    -1.662105
 O    -2.179574    -1.565589    -0.101768
 O     1.820779     0.570528     1.545459
 O     3.701596     0.212127    -0.158827
 O     2.313581     2.260057    -0.153774
 P     2.144778     0.646156    -0.104213
 P    -1.314084    -0.302359    -0.684666
 C     1.413734    -2.179708    -1.254463
 O     1.849015    -3.232039    -1.130125
 C    -2.501545     1.293396     1.142662
 C    -2.804256     2.629325     0.872841
 H    -2.151625     3.190967     0.202061
 C    -3.319388     0.541308     1.988574
 H    -3.061940    -0.499237     2.184086
 C    -3.928878     3.212952     1.451811
 H    -4.162742     4.259219     1.240508
 C    -4.446052     1.132924     2.556096
 H    -5.086956     0.543646     3.216485
 C    -4.755525     2.467053     2.291829
 H    -5.638002     2.925968     2.742831
 C    -3.832810     0.000992    -1.724705
 H    -4.150323    -0.374365    -0.739498
 C    -4.025455    -1.085824    -2.762828
 H    -3.456549    -1.984775    -2.489528
 H    -3.678413    -0.738243    -3.748024
 H    -5.088415    -1.359319    -2.843434
 C    -4.584165     1.273824    -2.047595
 H    -4.424176     2.026123    -1.263243
 H    -4.241579     1.687491    -3.008367
 H    -5.662984     1.070334    -2.119792
 C    -1.562960    -2.801508     0.284333
 H    -0.527089    -2.591634     0.604034
 C    -1.554781    -3.746137    -0.901074
 H    -1.064303    -3.276513    -1.765731
 H    -2.584619    -4.010479    -1.187533
 H    -1.010800    -4.670615    -0.657489
 C    -2.342720    -3.344406     1.461703
 H    -2.299171    -2.649972     2.311141
 H    -3.395618    -3.503935     1.182301
 H    -1.916766    -4.303811     1.789488
 C     1.387825    -0.555286     2.172823
 C     0.324912    -0.438465     3.072241
 H    -0.143748     0.537450     3.205272
 C     1.994289    -1.796273     1.961213
 H     2.830798    -1.875820     1.265281
 C    -0.113804    -1.559249     3.769715
 H    -0.938433    -1.459185     4.480175
 C     1.532052    -2.917087     2.650808
 H     2.007312    -3.885070     2.474907
 C     0.483111    -2.804599     3.560743
 H     0.130297    -3.682613     4.106067
 C     4.719356     0.858414     0.633551
 H     4.220788     1.461012     1.410558
 C     5.523681     1.767536    -0.271242
 H     4.867716     2.523619    -0.723181
 H     5.997923     1.184563    -1.075600
 H     6.312333     2.280349     0.300044
 C     5.542076    -0.228688     1.290301
 H     4.920092    -0.841253     1.958485
 H     5.988432    -0.885021     0.527565
 H     6.353774     0.213454     1.887115
 C     1.157775     3.105897    -0.022454
 H     0.258648     2.466540    -0.023123
 C     1.117969     4.020107    -1.226741
 H     1.037972     3.428575    -2.150148
 H     2.034274     4.628263    -1.278881
 H     0.252970     4.698288    -1.170123
 C     1.243881     3.831606     1.303585
 H     1.293357     3.105372     2.126396
 H     2.142862     4.466430     1.339825
 H     0.359630     4.470076     1.451291
