 110
scf done:    -3289.955068
 C    -0.935642     0.454813    -3.753636
 H    -1.332890    -0.397173    -4.313523
 H    -1.661624     1.257040    -3.594171
 C     0.449683     0.743460    -3.822992
 H     1.093963     0.104956    -4.436846
 H     0.802985     1.776032    -3.741295
 H    -0.353985     1.380869    -1.514897
Rh    -0.023359    -0.108751    -1.892887
 C    -1.757563     0.911692     0.996681
 C    -3.463844     0.126371    -1.302028
 C    -2.358058    -1.887795     0.231289
 C     1.673611    -0.439971     1.205130
 C     3.393208    -0.616260    -1.187978
 C     2.478908     1.908137    -0.407844
 P     1.848107     0.172510    -0.514749
 P    -1.858308    -0.237514    -0.438203
 C     0.449785    -1.875931    -2.443923
 O     0.814028    -2.896125    -2.831349
 C    -1.620629     0.482672     2.326860
 O    -1.483794    -0.837965     2.532123
 C    -1.800231    -1.389099     3.775387
 H    -1.791521    -2.478352     3.638513
 H    -1.056896    -1.124726     4.545641
 H    -2.803380    -1.071436     4.110680
 C    -1.783683     2.300192     0.756759
 O    -1.915178     2.673635    -0.527888
 C    -1.858020     4.024158    -0.877160
 H    -1.920928     4.062028    -1.972285
 H    -0.910012     4.488465    -0.554358
 H    -2.701994     4.595391    -0.450671
 C    -1.726002     3.224056     1.805317
 H    -1.751615     4.294386     1.605205
 C    -1.607961     1.399985     3.386912
 H    -1.527785     1.046961     4.414485
 C    -1.663574     2.759818     3.114948
 H    -1.642325     3.477140     3.939504
 C    -3.634086    -0.623157    -2.469421
 H    -2.826387    -1.298436    -2.762556
 C    -4.508779     0.994417    -0.919408
 O    -4.395463     1.664535     0.243175
 C    -5.277314     2.701018     0.542721
 H    -5.316348     3.457234    -0.262079
 H    -4.897006     3.172791     1.459075
 H    -6.305036     2.337960     0.729199
 C    -4.773610    -0.524630    -3.263332
 H    -4.865222    -1.129630    -4.167544
 C    -5.643559     1.120591    -1.732973
 H    -6.444576     1.802638    -1.446425
 C    -5.775666     0.366052    -2.895880
 H    -6.672652     0.478562    -3.510033
 C    -1.608240    -3.008674    -0.100723
 H    -0.687339    -2.857514    -0.661741
 C    -3.540715    -2.070590     0.979346
 O    -4.197342    -0.951575     1.325018
 C    -5.453038    -1.032389     1.927922
 H    -6.170865    -1.592149     1.303275
 H    -5.804527     0.000684     2.041614
 H    -5.403375    -1.504543     2.925651
 C    -2.008278    -4.295616     0.271059
 H    -1.406300    -5.160063    -0.017341
 C    -3.955270    -3.352444     1.346543
 H    -4.874613    -3.494091     1.915866
 C    -3.185593    -4.461945     0.988359
 H    -3.521471    -5.461243     1.276931
 C     1.591906     0.375348     2.343423
 O     1.520265     1.701262     2.136095
 C     1.805101     2.588219     3.175866
 H     1.831696     3.589493     2.726690
 H     1.026190     2.570723     3.956234
 H     2.785739     2.369908     3.635146
 C     1.609124    -1.833315     1.382580
 O     1.641954    -2.557484     0.248722
 C     1.796195    -3.945949     0.308235
 H     1.842222    -4.293010    -0.731559
 H     0.942364    -4.429544     0.812790
 H     2.728239    -4.225172     0.829524
 C     1.566752    -2.406134     2.656544
 H     1.535290    -3.487638     2.782037
 C     1.579806    -0.187113     3.627652
 H     1.550840     0.453406     4.508543
 C     1.579958    -1.569602     3.768474
 H     1.566897    -2.007764     4.769904
 C     3.568883    -0.383387    -2.554658
 H     2.789196     0.176629    -3.075202
 C     4.390276    -1.357140    -0.514448
 O     4.247299    -1.576775     0.806514
 C     5.152183    -2.389704     1.486280
 H     5.215263    -3.402236     1.047821
 H     4.776936    -2.470380     2.515350
 H     6.169500    -1.957156     1.505871
 C     4.676807    -0.848405    -3.259159
 H     4.773288    -0.640033    -4.326529
 C     5.496590    -1.843090    -1.224462
 H     6.262248    -2.422618    -0.708353
 C     5.640662    -1.588584    -2.586269
 H     6.514427    -1.977402    -3.115183
 C     1.829074     2.920879    -1.105374
 H     0.915183     2.654042    -1.640860
 C     3.658518     2.234787     0.294854
 O     4.231203     1.235945     0.985686
 C     5.436619     1.448370     1.654459
 H     6.242155     1.751383     0.962675
 H     5.703122     0.491301     2.119519
 H     5.340648     2.213298     2.445901
 C     2.313532     4.231339    -1.122339
 H     1.782384     5.003220    -1.683791
 C     4.156754     3.539910     0.276333
 H     5.070162     3.790302     0.816644
 C     3.480284     4.534510    -0.432941
 H     3.880964     5.551455    -0.441556
