  90
scf done:    -2380.051130
 C     0.693027    -3.488161     0.318714
 H     0.632982    -4.060552    -0.613296
 H     1.681330    -3.495557     0.782937
 C    -0.463242    -3.348866     1.136672
 H    -1.405190    -3.813470     0.825351
 H    -0.351508    -3.268932     2.221746
 H     0.858081    -1.213873     1.418807
Rh    -0.063174    -1.488719     0.146919
 C     2.849432     0.496414     0.101262
 C     2.611786    -1.388016    -2.132712
 C     0.942134     1.112786    -2.104192
 C    -2.766004     0.689786    -0.042621
 C    -2.442841    -0.637665     2.571591
 C    -0.638268     1.641127     1.815527
 P    -1.458292     0.094717     1.144371
 P     1.573406    -0.279134    -1.015922
 C    -1.200944    -1.968474    -1.293781
 O    -1.905385    -2.350128    -2.121451
 C     2.949312     1.861560     0.447209
 O     2.075804     2.723396    -0.121934
 C     2.179250     4.093134     0.131111
 H     1.418966     4.580996    -0.492380
 H     1.980196     4.334442     1.189966
 H     3.170183     4.491027    -0.147774
 C     3.711594    -0.384675     0.800465
 O     3.582439    -1.692436     0.515012
 C     4.353222    -2.641453     1.194086
 H     4.051293    -3.621474     0.803551
 H     4.163347    -2.617470     2.280622
 H     5.432979    -2.500556     1.011832
 C     4.649492     0.067882     1.734411
 H     5.303385    -0.634811     2.247795
 C     3.896780     2.323654     1.371619
 H     3.960197     3.383018     1.612923
 C     4.740422     1.425537     2.005745
 H     5.472780     1.787661     2.730728
 H     2.747133    -2.255704    -1.474103
 C     1.820167    -1.867072    -3.343255
 H     2.350960    -2.708455    -3.817512
 H     0.818598    -2.223539    -3.063359
 H     1.709289    -1.083499    -4.107466
 C     3.992135    -0.879189    -2.529798
 H     4.569642    -0.520637    -1.666711
 H     4.565130    -1.697958    -2.996669
 H     3.940695    -0.060874    -3.261075
 H     0.595336     1.827773    -1.348810
 C     1.984469     1.801655    -2.976648
 H     1.580429     2.752533    -3.363820
 H     2.907726     2.030912    -2.427386
 H     2.249138     1.187620    -3.850622
 C    -0.293391     0.724595    -2.909587
 H    -1.088419     0.332380    -2.264627
 H    -0.691216     1.623108    -3.409954
 H    -0.090255    -0.018657    -3.691947
 C    -2.738116     1.902126    -0.767214
 O    -1.716629     2.753831    -0.521476
 C    -1.668596     3.990262    -1.169049
 H    -0.790673     4.513779    -0.769826
 H    -1.551834     3.880264    -2.261310
 H    -2.565991     4.599129    -0.963311
 C    -3.770610    -0.234850    -0.419550
 O    -3.734529    -1.429086     0.200368
 C    -4.582651    -2.464342    -0.210821
 H    -4.310693    -3.340465     0.391625
 H    -4.433770    -2.702949    -1.276753
 H    -5.644102    -2.221189    -0.030064
 C    -4.736068     0.059483    -1.387596
 H    -5.500572    -0.671193    -1.645934
 C    -3.708121     2.209198    -1.730410
 H    -3.674684     3.157217    -2.264150
 C    -4.703326     1.289635    -2.027893
 H    -5.454721     1.529560    -2.783432
 H    -2.698170    -1.618047     2.150304
 C    -1.556671    -0.889945     3.786077
 H    -2.046507    -1.619152     4.451654
 H    -0.577465    -1.298992     3.497224
 H    -1.391561     0.024632     4.374260
 C    -3.738282     0.065969     2.955486
 H    -4.383621     0.256624     2.087247
 H    -4.305790    -0.565615     3.659617
 H    -3.556081     1.027301     3.455810
 H    -0.231872     2.073353     0.892698
 C    -1.576465     2.657498     2.456867
 H    -1.063643     3.629151     2.557591
 H    -2.491217     2.821278     1.871444
 H    -1.870074     2.344807     3.470258
 C     0.558046     1.356631     2.719816
 H     1.196063     0.560825     2.313660
 H     1.170353     2.268813     2.803970
 H     0.259925     1.072074     3.737261
