  86
scf done:    -2527.703952
 C    -0.006272    -3.849065     1.404135
 H    -0.737019    -4.079636     2.184145
 H    -0.239540    -4.276889     0.426224
 C     1.334804    -3.567932     1.748338
 H     1.644361    -3.588534     2.797519
 H     2.134241    -3.778488     1.032652
 H     0.784426    -2.078769    -0.243775
Rh     0.327003    -1.712730     1.231254
 C    -1.320575    -0.486653    -1.643418
 O    -2.808711    -1.829295     0.204905
 O    -2.060236     0.559875     0.759462
 C     2.813412     0.366227     2.633679
 O     3.433515    -0.784197     0.359245
 O     1.696716     1.123772     0.217712
 P     2.033130    -0.264344     1.101402
 P    -1.446764    -0.859866     0.144276
 C    -0.289576    -1.308127     3.006251
 O    -0.680811    -1.063944     4.054087
 H    -0.495162     0.237978    -1.733631
 C    -1.058267    -1.725765    -2.484542
 H    -1.866459    -2.464654    -2.376780
 H    -0.120660    -2.217306    -2.185103
 H    -2.238203     0.037307    -1.956335
 H    -0.978611    -1.458948    -3.549167
 C    -4.084386    -1.376699     0.010450
 C    -4.640140    -1.306140    -1.266325
 H    -4.048460    -1.613935    -2.129797
 C    -4.847604    -1.005270     1.118794
 H    -4.395442    -1.061760     2.110263
 C    -5.945294    -0.845008    -1.428189
 H    -6.367787    -0.785988    -2.435026
 C    -6.150586    -0.552489     0.942444
 H    -6.735276    -0.256816     1.818097
 C    -6.724210    -0.457277    -0.333033
 C    -8.138480     0.014552    -0.509787
 H    -8.320009     0.369432    -1.534324
 H    -8.379360     0.834486     0.183136
 H    -8.855918    -0.799213    -0.311237
 C    -2.336154     1.715594     0.072526
 C    -3.653974     2.069591    -0.209782
 H    -4.466225     1.404006     0.084313
 C    -1.289942     2.557543    -0.305352
 H    -0.265571     2.253301    -0.086572
 C    -3.912768     3.269642    -0.869343
 H    -4.949925     3.537913    -1.089691
 C    -1.566791     3.749502    -0.966781
 H    -0.735687     4.397030    -1.261121
 C    -2.882093     4.131642    -1.259843
 C    -3.174521     5.435698    -1.944347
 H    -4.148907     5.414567    -2.453471
 H    -2.404658     5.680978    -2.691019
 H    -3.201123     6.267412    -1.220211
 H     2.753875    -0.504287     3.308039
 C     4.230784     0.917630     2.594170
 H     4.299381     1.852637     2.023092
 H     4.917970     0.192671     2.137172
 H     2.091167     1.099614     3.032863
 H     4.577761     1.122086     3.618646
 C     3.451707    -1.534253    -0.782018
 C     2.721652    -1.177981    -1.916104
 H     2.088283    -0.289908    -1.895162
 C     4.253381    -2.675865    -0.803232
 H     4.812212    -2.941670     0.096009
 C     2.796832    -1.971083    -3.060034
 H     2.214541    -1.686304    -3.940662
 C     4.319055    -3.453335    -1.953500
 H     4.947072    -4.348769    -1.955745
 C     3.591417    -3.119648    -3.104404
 C     3.675951    -3.968169    -4.340081
 H     2.958151    -3.638090    -5.104075
 H     3.467168    -5.025786    -4.115348
 H     4.682537    -3.925382    -4.787205
 C     2.516768     2.219856     0.122479
 C     3.639490     2.211006    -0.705977
 H     3.891020     1.310204    -1.266787
 C     2.190007     3.367694     0.843522
 H     1.305496     3.361869     1.483859
 C     4.438174     3.347405    -0.787306
 H     5.322571     3.328461    -1.430308
 C     2.998930     4.497283     0.747304
 H     2.738445     5.390066     1.322468
 C     4.138240     4.509719    -0.065160
 C     4.994727     5.736695    -0.186463
 H     4.727070     6.319836    -1.083558
 H     6.060103     5.477266    -0.274435
 H     4.875607     6.399180     0.682714
