  98
scf done:    -3132.964384
 C    -0.638792     2.273270    -3.049974
 H    -1.133056     1.751176    -3.874899
 H    -1.275317     2.995186    -2.530287
 C     0.765951     2.450128    -3.065793
 H     1.356358     2.060929    -3.900101
 H     1.213798     3.304394    -2.551144
 H     0.084208     2.115423    -0.633180
Rh     0.251012     0.900769    -1.642686
 C    -3.024768     0.910236    -0.516329
 O    -1.646653    -1.474217    -0.305698
 O    -0.978308     0.387744     1.297172
 C     2.108351    -0.918145     0.788410
 O     3.392572    -0.076681    -1.434686
 O     2.898504     1.609618     0.361185
 P     2.123468     0.409405    -0.483184
 P    -1.364257     0.163758    -0.302804
 C     0.317673    -0.576328    -2.868444
 O     0.293294    -1.479999    -3.573186
 C    -3.456219     2.069008     0.158708
 O    -2.627807     2.582089     1.088387
 C    -2.939289     3.808139     1.687789
 H    -2.107283     4.039760     2.364555
 H    -3.029106     4.614677     0.940353
 H    -3.871990     3.756596     2.276472
 C    -3.791859     0.458842    -1.611135
 O    -3.235003    -0.525890    -2.333239
 C    -3.958807    -1.143052    -3.362098
 H    -3.303575    -1.919922    -3.773764
 H    -4.215641    -0.428082    -4.162048
 H    -4.877960    -1.615403    -2.976624
 C    -5.028863     1.032402    -1.919330
 H    -5.632971     0.650050    -2.740676
 C    -4.687373     2.659292    -0.156692
 H    -5.036024     3.538648     0.382504
 C    -5.466278     2.121052    -1.174560
 H    -6.429868     2.579306    -1.409214
 C    -2.776609    -2.224152    -0.197211
 C    -3.836805    -1.909734     0.654786
 H    -3.794800    -1.019431     1.281703
 C    -2.822043    -3.384184    -0.975526
 H    -1.975873    -3.596699    -1.632170
 C    -4.945370    -2.754000     0.704935
 H    -5.772149    -2.502639     1.373567
 C    -3.929073    -4.223707    -0.908691
 H    -3.956117    -5.129961    -1.519021
 C    -5.001441    -3.909384    -0.071952
 H    -5.872241    -4.566562    -0.020517
 C    -1.472605    -0.295796     2.372588
 C    -1.110260    -1.627781     2.584320
 H    -0.466435    -2.127437     1.861313
 C    -2.289796     0.367060     3.289996
 H    -2.551470     1.405732     3.096545
 C    -1.584122    -2.296156     3.709319
 H    -1.301243    -3.339698     3.866324
 C    -2.752886    -0.311383     4.416092
 H    -3.392924     0.209476     5.132681
 C    -2.406959    -1.645606     4.628339
 H    -2.776280    -2.176189     5.508798
 C     2.093891    -0.709217     2.183112
 O     2.027945     0.556546     2.621695
 C     1.853447     0.812695     3.987571
 H     1.751357     1.901426     4.081269
 H     0.941737     0.327120     4.376565
 H     2.723849     0.485667     4.582265
 C     2.014249    -2.244322     0.317265
 O     1.915226    -2.379302    -1.015808
 C     1.824859    -3.655662    -1.585242
 H     1.705729    -3.500873    -2.664112
 H     0.946945    -4.205142    -1.204187
 H     2.738860    -4.244203    -1.396808
 C     2.030295    -3.334373     1.194242
 H     1.988174    -4.355070     0.818233
 C     2.131021    -1.799924     3.063980
 H     2.146342    -1.639036     4.140333
 C     2.114652    -3.093398     2.560695
 H     2.142676    -3.937593     3.253705
 C     4.481748    -0.796622    -1.040047
 C     4.922437    -1.800895    -1.904475
 H     4.376047    -1.958986    -2.835954
 C     5.152107    -0.556197     0.161863
 H     4.806009     0.241576     0.819974
 C     6.030389    -2.570932    -1.562671
 H     6.373316    -3.354181    -2.243532
 C     6.254909    -1.340240     0.495896
 H     6.774835    -1.153763     1.438812
 C     6.698485    -2.348747    -0.357838
 H     7.564894    -2.956804    -0.088430
 C     2.491164     2.901349     0.497592
 C     1.334493     3.230949     1.208955
 H     0.717583     2.433932     1.624719
 C     3.285992     3.900699    -0.064820
 H     4.177434     3.607035    -0.622158
 C     0.989028     4.573035     1.355486
 H     0.084421     4.835062     1.909540
 C     2.929612     5.237894     0.091805
 H     3.554390     6.017895    -0.350113
 C     1.779203     5.579963     0.802376
 H     1.499062     6.628822     0.923098
