  92
scf done:    -2681.924165
 C     1.195678    -3.681784    -0.897686
 H     1.674745    -3.769280    -1.877567
 H     1.868871    -3.853894    -0.053292
 C    -0.190867    -3.932423    -0.765856
 H    -0.774612    -4.220473    -1.645841
 H    -0.591943    -4.302559     0.181094
 H     0.383133    -2.087317     0.900279
Rh     0.179731    -1.795117    -0.650808
 O     1.676199     0.396104     1.328738
 C     3.483780    -1.163179     0.051772
 C     2.233957     1.060813    -1.257467
 O    -1.434118     0.968784    -0.150818
 C    -3.290845    -0.955165    -0.787301
 C    -2.124128    -0.785800     1.828895
 P    -1.690247    -0.699100     0.057566
 P     1.864523    -0.358328    -0.174629
 C    -0.000251    -1.470343    -2.529928
 O    -0.082647    -1.275927    -3.657034
 C     2.100518     1.671296     1.591407
 C     3.362038     1.900518     2.141183
 H     4.024143     1.055238     2.334614
 C     1.237991     2.736556     1.326536
 H     0.262665     2.523583     0.887388
 C     3.759786     3.207272     2.420484
 H     4.748289     3.388022     2.849997
 C     1.646790     4.037022     1.606480
 H     0.971413     4.868651     1.391734
 C     2.908188     4.277969     2.152149
 H     3.226950     5.300003     2.369077
 C     3.912883    -1.559938     1.320031
 H     3.314985    -1.295723     2.195234
 C     4.239313    -1.542927    -1.065626
 H     3.906655    -1.262956    -2.069163
 C     5.087720    -2.295601     1.468870
 H     5.410090    -2.594694     2.470224
 C     5.410420    -2.273493    -0.907919
 H     5.991178    -2.553184    -1.791660
 C     5.859063    -2.662646     0.362571
 C     7.121238    -3.459391     0.516561
 H     7.352757    -3.648120     1.574069
 H     7.039051    -4.434811     0.010629
 H     7.981245    -2.936236     0.069203
 C     3.496077     1.668076    -1.311311
 H     4.333106     1.238527    -0.756948
 C     1.174553     1.643791    -1.960175
 H     0.178486     1.202907    -1.886720
 C     3.686735     2.825246    -2.056194
 H     4.676149     3.290403    -2.081120
 C     1.373163     2.805092    -2.700570
 H     0.529603     3.252655    -3.233116
 C     2.630332     3.414761    -2.763885
 C     2.852330     4.653885    -3.579160
 H     3.311859     4.406267    -4.550663
 H     1.907561     5.176532    -3.784763
 H     3.530489     5.353766    -3.068655
 C    -2.348183     1.969590    -0.008115
 C    -2.655734     2.488782     1.252454
 H    -2.184425     2.061175     2.138095
 C    -2.935405     2.509839    -1.155108
 H    -2.679842     2.082113    -2.126413
 C    -3.567140     3.538327     1.356544
 H    -3.808709     3.941521     2.343048
 C    -3.840411     3.561111    -1.039046
 H    -4.300307     3.978411    -1.938150
 C    -4.164180     4.076042     0.216586
 H    -4.876697     4.899048     0.306014
 C    -3.347289    -1.885073    -1.829355
 H    -2.448452    -2.455730    -2.073967
 C    -4.460102    -0.247273    -0.459464
 H    -4.460121     0.470617     0.362462
 C    -4.529743    -2.096397    -2.534633
 H    -4.549685    -2.833493    -3.341871
 C    -5.633931    -0.458105    -1.171986
 H    -6.530449     0.107515    -0.902904
 C    -5.690632    -1.382193    -2.225011
 C    -6.959880    -1.582317    -2.998844
 H    -7.828601    -1.669949    -2.328844
 H    -7.151291    -0.724938    -3.665086
 H    -6.914891    -2.485263    -3.623470
 C    -1.168038    -0.327614     2.749713
 H    -0.214237     0.064808     2.386860
 C    -3.307464    -1.347116     2.312835
 H    -4.055226    -1.737344     1.619958
 C    -1.419917    -0.390719     4.112739
 H    -0.665978    -0.019038     4.812790
 C    -3.543556    -1.421047     3.686240
 H    -4.476102    -1.865154     4.045376
 C    -2.614340    -0.936530     4.608763
 C    -2.865875    -1.007226     6.085990
 H    -2.106047    -1.627602     6.587820
 H    -2.818618    -0.007384     6.545981
 H    -3.852548    -1.436727     6.308517
