  62
scf done:    -2137.764450
 C    -3.572962    -2.156874     1.253039
 H    -3.978492    -1.669898     2.144211
 H    -4.294095    -2.286859     0.441998
 C    -2.472293    -3.036070     1.365734
 H    -2.026268    -3.231685     2.344873
 H    -2.353324    -3.853027     0.649327
 H    -2.141716    -1.811574    -0.870009
Rh    -1.794781    -1.145690     0.539621
 O    -1.722545     1.848289    -1.130843
 O    -3.720218     0.557220    -1.637284
 O    -3.593554     1.605185     0.594604
 O     1.476007    -0.958334     0.844928
 O     0.902081    -2.863986    -0.610749
 O     0.601312    -0.544671    -1.577905
 P     0.296781    -1.383789    -0.213142
 P    -2.682217     0.693520    -0.389759
 C    -1.334286    -0.401171     2.251488
 O    -1.049581     0.046236     3.263089
 C    -0.587870     2.379391    -0.599733
 C     0.434711     2.739164    -1.477979
 H     0.303883     2.538488    -2.542514
 C    -0.438940     2.619703     0.768175
 H    -1.244460     2.363288     1.458161
 C     1.585661     3.349175    -0.990901
 H     2.374852     3.635232    -1.692083
 C     0.728379     3.214149     1.241284
 H     0.831197     3.390758     2.315501
 C     1.760037     3.596584     0.377104
 C     3.020617     4.218266     0.906128
 H     2.804100     5.005019     1.644596
 H     3.617485     4.666789     0.099155
 H     3.653646     3.469044     1.411414
 C    -3.312743    -0.026666    -2.853766
 H    -2.583307     0.616062    -3.371979
 H    -2.860737    -1.019117    -2.684839
 H    -4.209092    -0.139802    -3.477893
 C    -4.223089     2.796814     0.153080
 H    -3.475318     3.548220    -0.145793
 H    -4.891050     2.594386    -0.696656
 H    -4.807592     3.180497     0.999103
 C     2.817693    -0.853098     0.569095
 C     3.360905     0.416341     0.390867
 H     2.696991     1.280409     0.438080
 C     3.629431    -1.983740     0.503175
 H     3.181649    -2.968286     0.640536
 C     4.721881     0.550921     0.132998
 H     5.139715     1.551106    -0.014817
 C     4.989325    -1.830114     0.244284
 H     5.623365    -2.719555     0.188076
 C     5.562460    -0.566455     0.055220
 C     7.036021    -0.412565    -0.188312
 H     7.585690    -0.307313     0.762243
 H     7.254458     0.481215    -0.790849
 H     7.452936    -1.286412    -0.709921
 C     0.175705    -3.711465    -1.471556
 H    -0.898197    -3.706336    -1.222798
 H     0.294731    -3.408930    -2.526253
 H     0.571707    -4.728531    -1.347359
 C     1.734944    -0.680280    -2.415293
 H     2.407659     0.177458    -2.271405
 H     2.289892    -1.606402    -2.204524
 H     1.384858    -0.695743    -3.458516
