 108
scf done:    -2767.229411
 C    -0.678625     1.983905    -3.286188
 H    -1.279744     1.537983    -4.085738
 H    -1.054702     2.945543    -2.925397
 C     0.715308     1.719053    -3.232279
 H     1.170668     1.064555    -3.983112
 H     1.396053     2.490982    -2.861827
 H    -0.112710     1.985554    -0.817439
Rh    -0.272264     0.642175    -1.649840
 C    -2.755917     2.344435     0.043982
 C    -3.749340    -0.305271    -0.719558
 C    -1.800243    -0.092488     1.359850
 C     1.360364    -1.754762     0.524250
 C     3.023591    -0.190568    -1.315143
 C     1.780457     1.071337     1.191504
 P     1.472301    -0.076776    -0.257999
 P    -2.181473     0.625769    -0.301358
 C    -0.315027    -0.910470    -2.759050
 O    -0.206134    -1.784625    -3.496448
 C    -2.353294     2.953643     1.242259
 H    -1.812287     2.374226     1.992059
 C    -3.443618     3.118047    -0.916214
 C    -3.885801     2.574825    -2.244846
 H    -4.877474     2.098139    -2.177177
 H    -3.172937     1.834134    -2.632056
 H    -3.966214     3.383469    -2.984456
 C    -2.632684     4.287785     1.513733
 H    -2.306652     4.729684     2.457961
 C    -3.719813     4.459525    -0.620551
 H    -4.251736     5.057810    -1.365689
 C    -3.326897     5.047762     0.576241
 H    -3.554570     6.098244     0.771580
 H    -4.433561    -0.199245     0.133602
 H    -4.208993     0.199330    -1.574384
 C    -3.509200    -1.753811    -1.021326
 C    -3.487966    -2.685781     0.024160
 H    -3.665016    -2.340323     1.046150
 C    -3.323493    -2.197551    -2.346947
 C    -3.435909    -1.251202    -3.507642
 H    -2.811436    -0.356595    -3.368534
 H    -4.476942    -0.908859    -3.635493
 H    -3.126363    -1.736104    -4.442902
 C    -3.270322    -4.038784    -0.219288
 H    -3.269712    -4.747793     0.612122
 C    -3.083050    -3.557360    -2.570986
 H    -2.924236    -3.901342    -3.596327
 C    -3.054497    -4.475732    -1.524275
 H    -2.873875    -5.533328    -1.731983
 H    -1.372100    -1.068217     1.087012
 H    -0.927413     0.468494     1.732822
 C    -2.808810    -0.286480     2.462700
 C    -3.998050     0.443909     2.558706
 H    -4.221737     1.208174     1.813649
 C    -2.520846    -1.253383     3.454293
 C    -1.251086    -2.052556     3.411733
 H    -0.357951    -1.407590     3.394258
 H    -1.188087    -2.680386     2.507986
 H    -1.171965    -2.714535     4.284617
 C    -4.904448     0.225437     3.594651
 H    -5.825714     0.810747     3.640321
 C    -3.441026    -1.459236     4.486655
 H    -3.215548    -2.208930     5.250289
 C    -4.627842    -0.733949     4.562602
 H    -5.330488    -0.917477     5.378896
 C     0.353624    -2.582102     0.001304
 H    -0.335778    -2.169660    -0.737334
 C     2.230065    -2.288023     1.506515
 C     3.370469    -1.551927     2.149720
 H     3.074817    -1.149516     3.133255
 H     3.752113    -0.729666     1.537401
 H     4.211149    -2.239698     2.318032
 C     0.197636    -3.904781     0.402063
 H    -0.592407    -4.509661    -0.044321
 C     2.035310    -3.614259     1.917925
 H     2.710513    -4.025090     2.673782
 C     1.044560    -4.423849     1.375906
 H     0.938772    -5.458370     1.711694
 H     2.601423    -0.591040    -2.248844
 H     3.286928     0.854154    -1.530438
 C     4.208357    -1.015036    -0.910064
 C     4.097876    -2.411712    -0.954759
 H     3.160344    -2.857375    -1.295971
 C     5.435012    -0.436558    -0.517809
 C     5.654189     1.047966    -0.534290
 H     4.973852     1.580537     0.145473
 H     5.487224     1.469452    -1.538371
 H     6.682956     1.293639    -0.237927
 C     5.146007    -3.238509    -0.564151
 H     5.026282    -4.323785    -0.599370
 C     6.478745    -1.283927    -0.127295
 H     7.428429    -0.837373     0.180382
 C     6.341721    -2.669770    -0.132752
 H     7.175843    -3.302724     0.179878
 H     0.763358     1.418735     1.435108
 H     2.122864     0.488814     2.050003
 C     2.657215     2.278800     0.985455
 C     2.553140     3.034019    -0.189083
 H     1.822007     2.726083    -0.938209
 C     3.558832     2.698377     1.987760
 C     3.694418     1.974610     3.297651
 H     4.116097     0.966264     3.166678
 H     2.724724     1.858363     3.806607
 H     4.361656     2.523392     3.976081
 C     3.347290     4.154796    -0.408920
 H     3.247519     4.716757    -1.340533
 C     4.347357     3.831418     1.751540
 H     5.049349     4.151962     2.526238
 C     4.259338     4.552718     0.564673
 H     4.893444     5.428507     0.408138
