  96
scf done:    -2458.768763
 C    -1.370497     0.219882    -3.798267
 H    -2.266652    -0.392745    -3.936053
 H    -1.512579     1.281941    -4.015401
 C    -0.091095    -0.358014    -3.971183
 H     0.006501    -1.416703    -4.226320
 H     0.737481     0.262516    -4.322968
 H     0.088770     1.390214    -2.042097
Rh    -0.446088    -0.101360    -1.852973
 C    -0.581025     2.084227     0.904730
 O    -2.847094     1.790579    -0.333934
 O    -1.967875    -0.238076     1.007550
 C     1.843156    -1.073255     0.701605
 O     2.181606    -1.977355    -1.834963
 O     2.867248     0.413517    -1.163641
 P     1.616152    -0.642995    -1.060103
 P    -1.493947     0.873740    -0.107837
 C    -1.250807    -1.822807    -1.614075
 O    -1.763183    -2.833196    -1.442369
 C     0.277833     1.636752     1.913539
 H     0.351192     0.572514     2.142449
 C    -0.665121     3.451012     0.623321
 H    -1.348532     3.789559    -0.159156
 C     1.035352     2.558954     2.631348
 H     1.699503     2.209434     3.425664
 C     0.093639     4.385752     1.333771
 C     0.023685     5.847856     1.001076
 H     0.849720     6.136333     0.328980
 H    -0.916968     6.100468     0.491828
 H     0.105812     6.472362     1.902903
 C     0.942741     3.918759     2.345854
 H     1.537779     4.634772     2.919954
 C    -3.685944     1.564487    -1.460137
 H    -4.211583     2.517023    -1.635195
 H    -3.053819     1.345101    -2.334342
 C    -4.676098     0.438713    -1.242891
 H    -5.203090     0.268386    -2.198719
 H    -4.116048    -0.490881    -1.037512
 C    -5.690054     0.694682    -0.137714
 H    -6.256110     1.613263    -0.373555
 H    -5.153181     0.910913     0.800381
 C    -6.652921    -0.462771     0.069485
 H    -7.232413    -0.670247    -0.844520
 H    -6.114593    -1.388890     0.329052
 H    -7.369506    -0.257256     0.879153
 C    -2.637511     0.109336     2.213037
 H    -1.885963     0.274651     3.004483
 H    -3.192800     1.051975     2.077224
 C    -3.572878    -1.016442     2.594485
 H    -4.105007    -0.721789     3.516271
 H    -4.342019    -1.118307     1.810759
 C    -2.874380    -2.353244     2.797051
 H    -2.117138    -2.246987     3.594315
 H    -2.318449    -2.598462     1.877620
 C    -3.833574    -3.480986     3.138909
 H    -4.388720    -3.271575     4.067782
 H    -4.576672    -3.625748     2.338151
 H    -3.305102    -4.436698     3.275268
 C     0.906718    -1.930331     1.292862
 H     0.072974    -2.322882     0.708021
 C     2.878865    -0.544383     1.473108
 H     3.589256     0.137426     1.001425
 C     1.025886    -2.256788     2.639087
 H     0.295101    -2.923340     3.102377
 C     3.003199    -0.855305     2.832842
 C     4.122968    -0.268382     3.642731
 H     5.093402    -0.699242     3.347497
 H     4.195601     0.819651     3.490105
 H     3.987973    -0.455725     4.717246
 C     2.063500    -1.719632     3.403453
 H     2.139555    -1.970124     4.465240
 C     3.457685    -2.556592    -1.585889
 H     3.788352    -2.957638    -2.557754
 H     4.176332    -1.773336    -1.290536
 C     3.411009    -3.666650    -0.550265
 H     4.405688    -4.147251    -0.536140
 H     3.268708    -3.233799     0.452586
 C     2.330758    -4.706808    -0.807687
 H     2.511387    -5.194013    -1.782426
 H     1.361973    -4.191227    -0.908597
 C     2.245540    -5.751345     0.292478
 H     3.194827    -6.300294     0.404574
 H     2.021868    -5.280213     1.263617
 H     1.455526    -6.490482     0.090399
 C     2.924291     1.446354    -2.137115
 H     3.887090     1.336640    -2.664664
 H     2.111491     1.315127    -2.868755
 C     2.820087     2.805917    -1.481416
 H     2.846585     3.565251    -2.283684
 H     1.828899     2.890719    -1.002384
 C     3.915507     3.092171    -0.463919
 H     4.901713     2.911143    -0.928330
 H     3.829193     2.367085     0.362022
 C     3.859318     4.506223     0.089276
 H     3.976610     5.255142    -0.710898
 H     2.893574     4.693100     0.582535
 H     4.652802     4.685342     0.830956
