  92
scf done:    -2681.925086
 C     1.629376    -3.647733     0.518107
 H     2.141974    -4.018023    -0.374894
 H     2.292836    -3.440168     1.362141
 C     0.273979    -3.983124     0.743099
 H    -0.252791    -4.619159     0.024852
 H    -0.113404    -4.039171     1.763498
 H     0.603273    -1.617970     1.650098
Rh     0.417569    -1.912072     0.097085
 O     1.667598     0.977385     1.148743
 C     3.635251    -0.756895     0.487729
 C     2.205782     0.723753    -1.511468
 O    -1.520679     0.625324    -0.461653
 C    -3.125274    -1.586275    -0.263784
 C    -2.035424    -0.289455     2.061456
 P    -1.579355    -0.853067     0.384117
 P     1.950318    -0.244596     0.014615
 C     0.248767    -2.276589    -1.776654
 O     0.166921    -2.481548    -2.901899
 C     1.901729     2.306634     0.922330
 C     3.101362     2.892337     1.327355
 H     3.870201     2.272067     1.790582
 C     0.905265     3.075683     0.317545
 H    -0.016709     2.585505     0.001854
 C     3.301068     4.256506     1.120674
 H     4.240839     4.716069     1.436588
 C     1.117275     4.435967     0.113205
 H     0.337854     5.033460    -0.365742
 C     2.314310     5.031186     0.512462
 H     2.478191     6.098705     0.349285
 C     4.103252    -0.570260     1.789735
 H     3.487225    -0.031699     2.512717
 C     4.408904    -1.481302    -0.427765
 H     4.030566    -1.646432    -1.441525
 C     5.348040    -1.083514     2.154167
 H     5.718923    -0.934679     3.171401
 C     5.656525    -1.998497    -0.075036
 C     6.476116    -2.782471    -1.058543
 H     6.496926    -3.851219    -0.789466
 H     6.068799    -2.703404    -2.076065
 H     7.519998    -2.433727    -1.079792
 C     6.118151    -1.784554     1.231943
 H     7.093351    -2.181005     1.528483
 C     3.414733     1.366548    -1.811268
 H     4.284689     1.232370    -1.165451
 C     1.097247     0.916683    -2.338368
 H     0.150126     0.442805    -2.069294
 C     3.494620     2.183063    -2.933517
 H     4.433776     2.687854    -3.172300
 C     1.163286     1.742496    -3.465973
 C    -0.053300     1.944616    -4.321311
 H    -0.432259     0.982792    -4.701441
 H    -0.869012     2.405419    -3.741346
 H     0.159526     2.591520    -5.183815
 C     2.379391     2.368931    -3.751597
 H     2.455001     3.017724    -4.628822
 C    -2.555160     1.479172    -0.700347
 C    -2.943767     2.421231     0.255874
 H    -2.432159     2.448866     1.218769
 C    -3.196929     1.428586    -1.941048
 H    -2.878212     0.678270    -2.666902
 C    -3.988455     3.298252    -0.031717
 H    -4.293581     4.031732     0.718575
 C    -4.235809     2.313126    -2.219006
 H    -4.736615     2.268499    -3.189249
 C    -4.639645     3.247312    -1.264046
 H    -5.456548     3.938598    -1.482644
 C    -3.052092    -2.824066    -0.912892
 H    -2.093145    -3.345060    -0.953725
 C    -4.359532    -0.926440    -0.188433
 H    -4.437483     0.030288     0.332336
 C    -4.193616    -3.377861    -1.485080
 H    -4.135438    -4.346407    -1.987180
 C    -5.510378    -1.462751    -0.774522
 C    -6.805360    -0.706663    -0.709158
 H    -7.115266    -0.535857     0.333958
 H    -6.700945     0.284448    -1.178989
 H    -7.616027    -1.244676    -1.219940
 C    -5.408724    -2.697990    -1.423424
 H    -6.298716    -3.134721    -1.885291
 C    -3.152826    -0.749614     2.761378
 H    -3.835192    -1.469125     2.305656
 C    -1.154032     0.607416     2.682006
 H    -0.249282     0.918654     2.153878
 C    -3.393122    -0.285422     4.055938
 H    -4.267872    -0.643844     4.604245
 C    -1.392379     1.088916     3.968767
 C    -0.435918     2.047920     4.616878
 H     0.290027     2.440181     3.890918
 H    -0.965604     2.900359     5.069463
 H     0.130607     1.553720     5.423080
 C    -2.532115     0.631993     4.647788
 H    -2.737642     0.994241     5.659294
