  84
scf done:    -4663.456835
 C     0.678540    -4.576129    -0.574204
 H     1.371551    -4.829957    -1.381136
 H     1.063844    -4.757280     0.432336
 C    -0.712464    -4.587027    -0.805686
 H    -1.100388    -4.852729    -1.792902
 H    -1.405643    -4.770376     0.018833
 H    -0.306959    -2.654000     0.814397
Rh    -0.028946    -2.526703    -0.745503
 O     1.980114    -1.040499     1.468488
 O     3.179494    -1.537802    -0.717466
 O     1.479610     0.370204    -0.621808
 O    -2.225246    -0.315897    -1.890618
 O    -3.261628    -1.953520    -0.214068
 O    -1.757347    -0.085088     0.622986
 P    -1.824976    -1.227065    -0.577065
 P     1.667435    -1.204144    -0.133870
 C     0.254960    -2.392695    -2.652847
 O     0.415200    -2.275245    -3.777080
 C     2.096220     0.127781     2.185779
 C     3.344865     0.518202     2.664674
 H     4.219925    -0.098209     2.456014
 C     0.955364     0.886390     2.441876
 H    -0.006350     0.538717     2.063355
 C     3.449144     1.703744     3.390567
 H     4.426563     2.017023     3.764705
 C     1.075255     2.075243     3.157596
 H     0.184453     2.679876     3.343490
 C     2.321604     2.489942     3.630029
 H     2.412775     3.422720     4.190795
 C     4.362721    -1.445980    -0.025729
 C     4.673751    -2.404571     0.939117
 H     3.963254    -3.206070     1.146917
 C     5.258634    -0.417443    -0.311973
 H     5.009367     0.320285    -1.074359
 C     5.872878    -2.321242     1.639170
 H     6.123464    -3.059148     2.402665
 C     6.461739    -0.334341     0.383279
 H     7.167975     0.469535     0.170635
 C     6.760414    -1.280794     1.362288
Cl     8.248883    -1.167621     2.240537
 C     2.419854     1.245047    -1.100951
 C     2.876321     1.109123    -2.412403
 H     2.503895     0.288781    -3.028126
 C     2.863273     2.296188    -0.300029
 H     2.483274     2.399689     0.716711
 C     3.810842     2.008362    -2.916530
 H     4.184002     1.909414    -3.936915
 C     3.796170     3.197873    -0.803887
 H     4.159076     4.020197    -0.185607
 C     4.273620     3.045270    -2.105353
Cl     5.446563     4.158438    -2.724665
 C    -3.483236    -0.057909    -2.383699
 C    -4.040107     1.210199    -2.229541
 H    -3.480066     1.984169    -1.704837
 C    -4.169051    -1.062118    -3.067146
 H    -3.705606    -2.043425    -3.181367
 C    -5.309872     1.462562    -2.745234
 H    -5.749046     2.454984    -2.620428
 C    -5.439009    -0.798609    -3.575195
 H    -5.980739    -1.586366    -4.103721
 C    -6.016321     0.461194    -3.410939
 H    -7.012913     0.663857    -3.808975
 C    -4.192102    -1.542010     0.706134
 C    -5.396206    -0.986801     0.276697
 H    -5.585028    -0.864129    -0.790076
 C    -3.936800    -1.714490     2.066951
 H    -2.989169    -2.154411     2.382005
 C    -6.341830    -0.581933     1.214637
 H    -7.285519    -0.139638     0.892152
 C    -4.878490    -1.306204     3.006182
 H    -4.688024    -1.426407     4.073689
 C    -6.076285    -0.734618     2.574966
Cl    -7.245395    -0.212735     3.741711
 C    -2.099031     1.242501     0.546551
 C    -3.229218     1.702444     1.219733
 H    -3.855786     0.999574     1.768881
 C    -1.274340     2.127623    -0.148197
 H    -0.384575     1.742763    -0.646730
 C    -3.552147     3.055877     1.177009
 H    -4.437335     3.429453     1.693836
 C    -1.598008     3.479911    -0.194405
 H    -0.965059     4.182345    -0.738715
 C    -2.740036     3.937531     0.463982
Cl    -3.148923     5.619728     0.401890
