  82
scf done:    -2151.242099
 C     0.204502    -2.739959    -2.634173
 H     1.145890    -2.833163    -3.183010
 H    -0.059733    -3.623323    -2.046076
 C    -0.821952    -1.912914    -3.150309
 H    -0.653016    -1.370613    -4.085847
 H    -1.868786    -2.166777    -2.965552
 H    -0.938999    -1.787810    -0.580591
Rh     0.091257    -0.936898    -1.441569
 O     0.610708    -2.047929     1.710931
 C     2.421585    -3.026980     0.104036
 C     2.516430    -0.170983     1.121517
 O    -1.080003     1.899241     0.225247
 C    -1.739498     1.897818    -2.440875
 C    -3.007386     0.243143    -0.234030
 P    -1.396488     0.757682    -0.994405
 P     1.429347    -1.476699     0.354447
 C     1.312082     0.055639    -2.514856
 O     2.017652     0.647605    -3.203719
 C    -0.598757    -1.614333     2.152607
 C    -1.693971    -2.476876     2.078104
 H    -1.560047    -3.454281     1.611713
 C    -0.754545    -0.354400     2.731083
 H     0.095497     0.327137     2.774197
 C    -2.926165    -2.082235     2.590672
 H    -3.776884    -2.765765     2.519739
 C    -1.993550     0.028250     3.237475
 H    -2.104405     1.023306     3.677530
 C    -3.102423    -0.823734     3.180363
 C    -4.431115    -0.407125     3.741326
 H    -5.262672    -0.889249     3.206733
 H    -4.570875     0.681863     3.676629
 H    -4.521325    -0.686214     4.804660
 H     1.600135    -3.706763    -0.185014
 C     3.377839    -2.926979    -1.079676
 H     3.665442    -3.935563    -1.415424
 H     2.919085    -2.405275    -1.931103
 H     4.302401    -2.396645    -0.810785
 C     3.097763    -3.599393     1.343105
 H     2.419142    -3.612565     2.206534
 H     3.421245    -4.634180     1.144834
 H     3.996742    -3.026090     1.613465
 H     1.824969     0.688086     1.134640
 C     2.974737    -0.428297     2.551777
 H     3.343029     0.513690     2.989600
 H     2.161670    -0.804440     3.187482
 H     3.796342    -1.156824     2.596309
 C     3.679502     0.207118     0.211870
 H     3.365564     0.367944    -0.828935
 H     4.129658     1.147698     0.563828
 H     4.466361    -0.561458     0.221462
 C     0.107142     2.488669     0.478634
 C     0.359614     2.883424     1.798164
 H    -0.413864     2.712390     2.548659
 C     1.070896     2.744132    -0.500366
 H     0.883155     2.482128    -1.540484
 C     1.570411     3.478079     2.132445
 H     1.749626     3.772074     3.170624
 C     2.279829     3.340984    -0.147934
 H     3.023008     3.521316    -0.929505
 C     2.564731     3.704942     1.170733
 C     3.892925     4.292788     1.550148
 H     3.790935     5.044477     2.346908
 H     4.381760     4.772706     0.690142
 H     4.580475     3.514913     1.924680
 H    -0.751891     1.947274    -2.932438
 C    -2.696595     1.243184    -3.431899
 H    -2.698725     1.805256    -4.379092
 H    -2.408174     0.206762    -3.656328
 H    -3.728545     1.239821    -3.050315
 C    -2.159486     3.319127    -2.087260
 H    -1.450255     3.804124    -1.402768
 H    -2.207161     3.925272    -3.006689
 H    -3.152224     3.351073    -1.618608
 H    -2.618183    -0.130665     0.726507
 C    -3.982631     1.371936     0.072869
 H    -4.767642     0.999600     0.751112
 H    -3.482848     2.216798     0.565446
 H    -4.486451     1.739393    -0.834367
 C    -3.683318    -0.932270    -0.925189
 H    -2.975839    -1.757270    -1.083820
 H    -4.497690    -1.305260    -0.283928
 H    -4.123741    -0.657095    -1.894606
