  84
scf done:    -3222.360403
 C    -0.151645     1.159677    -3.792083
 H    -0.577266     0.530203    -4.577963
 H    -0.775577     2.004743    -3.493656
 C     1.240447     1.210006    -3.604776
 H     1.906525     0.619893    -4.240035
 H     1.703333     2.098293    -3.166404
 H     0.111078     1.316637    -1.235058
Rh     0.373868    -0.037677    -2.032493
 O    -2.853706     0.366309    -1.111606
 O    -2.132935    -2.030393    -1.161671
 O    -1.401246    -0.555441     0.719999
 O     2.082874    -0.664131     0.865050
 O     3.480032    -0.888442    -1.268997
 O     2.898899     1.315178    -0.309095
 P     2.157001    -0.107499    -0.697963
 P    -1.484050    -0.543805    -0.928970
 C     0.592489    -1.699761    -2.983909
 O     0.713840    -2.703596    -3.512908
 C    -2.901922     1.612021    -1.679099
 C    -2.332323     2.712745    -1.039310
 H    -1.842574     2.584356    -0.072755
 C    -3.553526     1.757421    -2.902489
 H    -3.986959     0.876095    -3.378549
 C    -2.402163     3.964111    -1.648103
 H    -1.955185     4.827472    -1.149191
 C    -3.624274     3.014546    -3.497380
 H    -4.130918     3.128591    -4.458478
 C    -3.042218     4.120426    -2.877250
 H    -3.093071     5.103989    -3.348991
 C    -3.215535    -2.480688    -0.436701
 C    -4.505035    -2.280890    -0.925418
 H    -4.642145    -1.757425    -1.872001
 C    -3.004645    -3.135573     0.775232
 H    -1.985282    -3.263224     1.140253
 C    -5.598025    -2.742461    -0.195990
 H    -6.620321    -2.603099    -0.551647
 C    -4.094954    -3.597905     1.506400
 H    -3.962002    -4.111103     2.460374
 C    -5.378395    -3.394485     1.012185
 F    -6.423209    -3.834555     1.712121
 C    -1.937158     0.371702     1.574128
 C    -1.095524     1.323128     2.149847
 H    -0.034771     1.322238     1.893895
 C    -3.299612     0.352128     1.874568
 H    -3.941137    -0.397543     1.409752
 C    -1.618712     2.267812     3.030965
 H    -0.991208     3.036246     3.484394
 C    -3.823708     1.293610     2.754793
 H    -4.885716     1.305865     3.005743
 C    -2.977237     2.240435     3.320770
 F    -3.481980     3.145178     4.158858
 C     1.447413    -1.803650     1.268698
 C     0.938989    -1.819352     2.567812
 H     1.032403    -0.921240     3.180272
 C     1.329453    -2.927265     0.448142
 H     1.737304    -2.918094    -0.563861
 C     0.319812    -2.966862     3.049656
 H    -0.076031    -2.975525     4.067852
 C     0.699936    -4.070261     0.941131
 H     0.606976    -4.946938     0.296128
 C     0.198524    -4.098850     2.240507
 H    -0.286030    -4.999838     2.622783
 C     4.672957    -0.970992    -0.577714
 C     4.910348    -2.059386     0.258646
 H     4.140175    -2.821919     0.385324
 C     5.638992     0.017924    -0.752379
 H     5.423569     0.863384    -1.406393
 C     6.127984    -2.163910     0.925959
 H     6.343309    -3.005156     1.586872
 C     6.857388    -0.084062    -0.087713
 H     7.634804     0.672816    -0.205081
 C     7.086212    -1.174180     0.744255
 F     8.251763    -1.271833     1.382001
 C     2.339099     2.232540     0.541593
 C     2.616308     2.153568     1.907242
 H     3.257776     1.348912     2.267841
 C     1.523788     3.247635     0.039747
 H     1.322417     3.296000    -1.030761
 C     2.064914     3.086799     2.779937
 H     2.260985     3.049424     3.852929
 C     0.964939     4.179130     0.911752
 H     0.314124     4.977699     0.551793
 C     1.240259     4.082494     2.269529
 F     0.681111     4.953593     3.112080
