  56
scf done:    -2059.185867
 C     0.923511    -3.853739    -0.999811
 H     0.865687    -4.596081    -0.198678
 H     0.140013    -3.944992    -1.755860
 C     2.169254    -3.274752    -1.334851
 H     3.068557    -3.582665    -0.792317
 H     2.352440    -2.925712    -2.354255
 H     0.402559    -1.463216    -1.675505
Rh     0.961890    -1.833459    -0.238618
 O    -1.624354     0.091973    -0.426879
 O    -2.326649    -2.375015    -0.295440
 O    -1.727378    -1.205847     1.773282
 O     1.157396     1.284577     0.736807
 O     3.401716     0.552847     0.042164
 O     1.674015     0.991296    -1.778909
 P     1.833244     0.235265    -0.351086
 P    -1.176806    -1.368690     0.238997
 C     1.671346    -2.346062     1.476516
 O     2.112377    -2.659227     2.485583
 C    -2.911861     0.553776    -0.442670
 C    -3.720461     0.285310    -1.548279
 H    -3.311270    -0.312074    -2.364637
 C    -3.394288     1.316429     0.621985
 H    -2.739015     1.523245     1.469545
 C    -5.023912     0.774433    -1.578515
 H    -5.658870     0.563359    -2.442387
 C    -4.699615     1.802520     0.580017
 H    -5.078705     2.399959     1.412672
 C    -5.518884     1.530936    -0.515421
 H    -6.541704     1.912971    -0.543334
 C    -3.567740    -2.628335     0.343424
 H    -3.411890    -3.073545     1.336473
 H    -4.166609    -1.712255     0.452535
 H    -4.107097    -3.338099    -0.297728
 C    -0.945095    -0.534748     2.743977
 H    -0.333967    -1.255501     3.309329
 H    -0.280658     0.216280     2.288394
 H    -1.635526    -0.036051     3.439015
 C     1.122410     2.648022     0.599239
 C    -0.020104     3.235270     0.055847
 H    -0.836070     2.588580    -0.270468
 C     2.199294     3.425933     1.022631
 H     3.077163     2.928727     1.438054
 C    -0.076861     4.621218    -0.072327
 H    -0.968527     5.085480    -0.500496
 C     2.129980     4.811348     0.888341
 H     2.971117     5.427250     1.215919
 C     0.996391     5.412240     0.340197
 H     0.948187     6.498575     0.237048
 C     4.420144    -0.316743    -0.406808
 H     4.071012    -1.362667    -0.410783
 H     4.750234    -0.050980    -1.425283
 H     5.271158    -0.218154     0.280789
 C     2.400276     2.125321    -2.219806
 H     1.780909     3.029644    -2.130202
 H     3.322277     2.266373    -1.637020
 H     2.657288     1.963504    -3.276648
