 110
scf done:    -3290.087550
 C     0.646129    -0.978394    -3.959381
 H     1.263506    -0.269994    -4.519640
 H     1.106842    -1.958881    -3.810103
 C    -0.765409    -0.858119    -3.984450
 H    -1.232482    -0.059171    -4.567854
 H    -1.391736    -1.744352    -3.852308
 H    -0.180748    -1.680444    -1.671579
Rh    -0.028748    -0.162187    -2.081763
 C     2.677244    -1.842716    -0.601363
 O     2.902791     0.866898    -1.377607
 O     1.731943     0.240644     0.832765
 C    -1.760139     0.429240     1.023332
 O    -2.916046     1.270685    -1.258297
 O    -2.772945    -1.309586    -0.898808
 P    -1.862972     0.057425    -0.784877
 P     1.818826    -0.225192    -0.777015
 C     0.087533     1.689712    -2.594339
 O     0.118283     2.804789    -2.855780
 C     1.887139    -2.854934    -0.016227
 O     0.715363    -2.437803     0.483950
 C    -0.242771    -3.357630     0.929294
 H    -1.152165    -2.779893     1.135374
 H    -0.467269    -4.108306     0.153342
 H     0.090703    -3.866511     1.850251
 C     3.951502    -2.189298    -1.083672
 O     4.715888    -1.195811    -1.571629
 C     6.016894    -1.480024    -2.005306
 H     6.460053    -0.520633    -2.297972
 H     6.019101    -2.162003    -2.872931
 H     6.627701    -1.921559    -1.199154
 C     4.395898    -3.517732    -1.021864
 H     5.378415    -3.792508    -1.401672
 C     2.324637    -4.180206     0.048639
 H     1.705187    -4.951228     0.504620
 C     3.577487    -4.493209    -0.464377
 H     3.933211    -5.525336    -0.419449
 C     3.972682     1.568752    -0.919192
 C     5.011513     1.795576    -1.827411
 H     4.925234     1.363420    -2.825560
 C     4.033878     2.150608     0.347178
 H     3.214254     2.008462     1.048888
 C     6.107349     2.564717    -1.459520
 H     6.907486     2.734493    -2.186371
 C     5.147798     2.911710     0.703233
 H     5.183672     3.352864     1.703362
 C     6.206437     3.130928    -0.180284
 C     7.405331     3.945170     0.212350
 H     8.317664     3.327201     0.245406
 H     7.275290     4.397921     1.205464
 H     7.593300     4.758344    -0.506505
 C     2.283871    -0.398334     1.909560
 C     1.430985    -0.779047     2.946318
 H     0.364639    -0.579101     2.846900
 C     3.649764    -0.660801     2.005014
 H     4.321509    -0.367661     1.197651
 C     1.946749    -1.411346     4.070413
 H     1.265365    -1.703103     4.875281
 C     4.149747    -1.304448     3.136609
 H     5.221889    -1.510916     3.196246
 C     3.315793    -1.690486     4.188677
 C     3.861159    -2.366115     5.413778
 H     3.269366    -3.255593     5.680664
 H     3.840742    -1.691714     6.286035
 H     4.902756    -2.685364     5.267110
 C    -2.329542    -0.291207     2.090336
 O    -3.061704    -1.381553     1.785486
 C    -3.763735    -2.045882     2.800501
 H    -4.358733    -2.821375     2.303304
 H    -3.081777    -2.517523     3.529303
 H    -4.444858    -1.362806     3.335534
 C    -1.025946     1.594857     1.336415
 O    -0.551740     2.275611     0.284917
 C     0.212852     3.434865     0.483128
 H     0.523767     3.771672    -0.512469
 H     1.109819     3.223525     1.086653
 H    -0.385025     4.226492     0.965798
 C    -0.852708     2.022300     2.656509
 H    -0.284833     2.923222     2.880323
 C    -2.155684     0.130651     3.416015
 H    -2.596125    -0.429354     4.238808
 C    -1.424014     1.282392     3.681364
 H    -1.293853     1.607226     4.716151
 C    -3.519624     2.203650    -0.461033
 C    -3.222256     3.546931    -0.692955
 H    -2.510828     3.793383    -1.483267
 C    -4.414626     1.853343     0.548607
 H    -4.651182     0.803032     0.724453
 C    -3.814434     4.530964     0.090386
 H    -3.572287     5.580969    -0.098189
 C    -4.994048     2.851757     1.329125
 H    -5.687000     2.566124     2.125371
 C    -4.707913     4.203924     1.119752
 C    -5.354663     5.276092     1.948505
 H    -6.188692     5.751591     1.405512
 H    -4.640619     6.073277     2.205303
 H    -5.761681     4.870086     2.885628
 C    -4.091124    -1.633922    -0.891295
 C    -4.419755    -2.907942    -0.416667
 H    -3.613928    -3.547643    -0.052913
 C    -5.095846    -0.819144    -1.413685
 H    -4.842752     0.152056    -1.835193
 C    -5.739086    -3.341567    -0.429397
 H    -5.974337    -4.344122    -0.059284
 C    -6.416773    -1.267932    -1.407608
 H    -7.192691    -0.614706    -1.816665
 C    -6.771221    -2.524743    -0.912409
 C    -8.198153    -2.991985    -0.897865
 H    -8.599472    -3.027500     0.128725
 H    -8.295287    -4.005537    -1.317178
 H    -8.845329    -2.322443    -1.481912
