  76
scf done:    -2072.682395
 C    -1.253172     1.028710    -3.365811
 H    -1.921995     0.323169    -3.868064
 H    -1.696310     2.011245    -3.181312
 C     0.149013     0.920269    -3.552922
 H     0.549744     0.132121    -4.197921
 H     0.767799     1.821340    -3.511885
 H    -0.205070     1.738090    -1.163767
Rh    -0.363758     0.209627    -1.577670
 O    -2.035434     1.655723     1.000707
 C    -3.702766     0.685363    -0.767254
 C    -2.388649    -1.015798     1.147487
 O     1.979935    -0.499464     0.937753
 C     2.934042    -0.954830    -1.596477
 C     2.535168     1.679513    -0.417946
 P     1.714812     0.063099    -0.643754
 P    -2.052996     0.339679    -0.049777
 C    -0.553686    -1.607421    -2.125474
 O    -0.631945    -2.696222    -2.485812
 C    -0.921658     2.258110     1.490767
 C    -0.088419     1.609256     2.403456
 H    -0.306443     0.579865     2.690992
 C    -0.650480     3.574849     1.109901
 H    -1.310927     4.055594     0.386313
 C     1.003007     2.284786     2.944317
 H     1.652767     1.772590     3.657974
 C     0.437951     4.245636     1.661727
 H     0.642230     5.277267     1.365225
 C     1.267427     3.605469     2.584013
 H     2.117614     4.134619     3.019845
 H    -3.548179     1.592386    -1.374970
 H    -3.892657    -0.124384    -1.492864
 C    -4.867059     0.867000     0.196275
 H    -4.589030     1.619683     0.951325
 H    -5.045287    -0.071366     0.748023
 C    -6.146518     1.285891    -0.512119
 H    -6.013359     2.242643    -1.041879
 H    -6.455638     0.536971    -1.258983
 H    -6.977694     1.411258     0.198473
 H    -1.440562    -1.222346     1.670838
 H    -3.097388    -0.622148     1.895008
 C    -2.915546    -2.295714     0.510229
 H    -2.148944    -2.709368    -0.163806
 H    -3.789895    -2.071198    -0.124433
 C    -3.304334    -3.339513     1.546052
 H    -2.447901    -3.590825     2.189696
 H    -4.114134    -2.971821     2.196360
 H    -3.653572    -4.267643     1.068390
 C     1.411475    -1.595145     1.482073
 C     1.309399    -1.634290     2.878871
 H     1.688369    -0.785544     3.450667
 C     0.955913    -2.683145     0.728518
 H     1.048264    -2.678399    -0.356733
 C     0.750822    -2.741565     3.508621
 H     0.679613    -2.759343     4.598885
 C     0.395379    -3.786220     1.370719
 H     0.042867    -4.627233     0.768651
 C     0.285587    -3.823646     2.759040
 H    -0.151112    -4.692635     3.255504
 H     2.348270    -1.701590    -2.157188
 H     3.336105    -0.268091    -2.363314
 C     4.057783    -1.643867    -0.830238
 H     3.621697    -2.337258    -0.093554
 H     4.625780    -0.908913    -0.241285
 C     4.996856    -2.404633    -1.753925
 H     4.455002    -3.169564    -2.333112
 H     5.484686    -1.730233    -2.476120
 H     5.789549    -2.916053    -1.186986
 H     2.491522     2.144382    -1.418172
 H     1.835472     2.257507     0.206388
 C     3.940566     1.728854     0.160899
 H     4.643366     1.204365    -0.507261
 H     3.952438     1.182160     1.117423
 C     4.419925     3.157662     0.369966
 H     4.440253     3.715547    -0.580054
 H     3.750908     3.700266     1.055251
 H     5.435052     3.184212     0.794769
