 118
scf done:    -3518.911624
 C     0.683557    -2.320728    -2.794897
 H     1.081814    -1.910538    -3.727890
 H     1.364045    -3.002083    -2.275744
 C    -0.715894    -2.436275    -2.618145
 H    -1.395611    -2.117835    -3.415113
 H    -1.132898    -3.204388    -1.962163
 H     0.300540    -1.865748    -0.326961
Rh     0.000169    -0.778278    -1.442990
 O     1.657929     0.136686     1.305099
 C     3.070356    -1.469472    -0.424510
 C     3.038400     1.347174    -0.633984
 O    -2.185046     1.322702    -0.151944
 C    -3.447932    -1.050430    -0.601891
 C    -1.559651    -0.732878     1.660589
 P    -1.829286    -0.305487    -0.111609
 P     1.873389    -0.070769    -0.353703
 C    -0.301250     0.477992    -2.837545
 O    -0.487087     1.174594    -3.733666
 C     1.554661     1.356544     1.885647
 C     0.928136     2.435662     1.256964
 H     0.458812     2.289771     0.281864
 C     2.110720     1.493126     3.170344
 C     2.720933     0.301396     3.837190
 H     1.933492    -0.403016     4.151988
 H     3.358010    -0.244366     3.128240
 H     3.305421     0.592335     4.721582
 C     0.900725     3.680505     1.879784
 H     0.417412     4.521598     1.376169
 C     2.062023     2.752653     3.774345
 H     2.506888     2.874657     4.766411
 C     1.478613     3.848189     3.136574
 H     1.467475     4.825075     3.625509
 C     3.784887    -1.597198    -1.629144
 O     3.536145    -0.642686    -2.547291
 C     4.153424    -0.690877    -3.798808
 H     3.776865     0.172437    -4.361933
 H     5.251841    -0.612645    -3.717511
 H     3.896863    -1.615735    -4.344603
 C     3.221728    -2.475995     0.543529
 O     2.458366    -2.386458     1.649450
 C     2.680748    -3.260110     2.714518
 H     1.998239    -2.947353     3.513957
 H     3.721081    -3.202785     3.081730
 H     2.458798    -4.309557     2.447402
 C     4.124602    -3.530426     0.340203
 H     4.253937    -4.301127     1.099018
 C     4.681278    -2.650119    -1.843460
 H     5.236439    -2.730166    -2.777208
 C     4.848455    -3.602424    -0.844815
 H     5.547955    -4.427577    -0.998188
 C     4.279014     1.364802     0.039715
 O     4.492560     0.384509     0.933932
 C     5.759953     0.206858     1.494605
 H     5.707174    -0.714629     2.089045
 H     6.534893     0.085007     0.718487
 H     6.037726     1.044690     2.157545
 C     2.742011     2.430290    -1.482639
 O     1.514035     2.468046    -2.029199
 C     1.129923     3.595940    -2.767223
 H     0.088853     3.432488    -3.063525
 H     1.740561     3.716528    -3.678514
 H     1.200448     4.515468    -2.161156
 C     3.686265     3.438910    -1.722325
 H     3.457142     4.266601    -2.390762
 C     5.227480     2.365724    -0.201078
 H     6.185741     2.360806     0.316221
 C     4.920854     3.386899    -1.089866
 H     5.654609     4.174141    -1.279340
 C    -3.368255     1.940999     0.092464
 C    -4.333850     1.448019     0.970261
 H    -4.157020     0.516481     1.508891
 C    -3.564420     3.152200    -0.593955
 C    -2.498248     3.646245    -1.521341
 H    -2.806074     4.572426    -2.026501
 H    -1.560014     3.837599    -0.975849
 H    -2.261036     2.883166    -2.278080
 C    -5.516878     2.159375     1.161992
 H    -6.271634     1.766930     1.848007
 C    -4.755733     3.846733    -0.376803
 H    -4.917828     4.789729    -0.907021
 C    -5.733658     3.360145     0.490765
 H    -6.660182     3.918950     0.641207
 C    -4.256744    -1.879350     0.202587
 O    -4.008094    -1.881878     1.522782
 C    -4.521738    -2.893132     2.338885
 H    -4.034805    -2.775032     3.315967
 H    -5.614845    -2.806110     2.468865
 H    -4.284269    -3.893067     1.937466
 C    -3.854997    -0.856207    -1.940928
 O    -3.169567     0.062745    -2.642255
 C    -3.545118     0.342999    -3.962990
 H    -2.860016     1.119845    -4.320067
 H    -4.582367     0.715214    -4.014122
 H    -3.444820    -0.543970    -4.612239
 C    -4.926531    -1.570448    -2.489202
 H    -5.217636    -1.427999    -3.528358
 C    -5.315871    -2.614710    -0.344714
 H    -5.915304    -3.271254     0.284739
 C    -5.628954    -2.462364    -1.688299
 H    -6.460418    -3.028138    -2.115432
 C    -1.256102    -2.079655     1.927848
 O    -1.480991    -2.939459     0.911471
 C    -0.763227    -4.142602     0.863303
 H    -0.945588    -4.577072    -0.127613
 H     0.317113    -3.960827     0.982027
 H    -1.107232    -4.858416     1.630624
 C    -1.457374     0.187888     2.720805
 O    -1.802493     1.457694     2.472551
 C    -1.809656     2.398926     3.507599
 H    -2.155281     3.339159     3.060654
 H    -0.801495     2.553508     3.924098
 H    -2.506055     2.105627     4.313119
 C    -1.015727    -0.231269     3.985866
 H    -0.915376     0.489962     4.795127
 C    -0.813872    -2.502640     3.182179
 H    -0.587444    -3.552826     3.364583
 C    -0.692147    -1.563925     4.201871
 H    -0.349649    -1.879281     5.190892
