  98
scf done:    -2760.504561
 C    -1.142236     1.612269    -3.102796
 H    -1.826547     1.012622    -3.709804
 H    -1.585572     2.535351    -2.720184
 C     0.252348     1.541115    -3.333484
 H     0.630508     0.888358    -4.126673
 H     0.884911     2.410824    -3.136373
 H    -0.056633     1.882735    -0.825903
Rh    -0.243054     0.465610    -1.510574
 O    -2.104104     1.651523     1.063249
 C    -3.660356     0.555046    -0.745779
 C    -2.232947    -1.027835     1.081768
 O     1.574120    -0.925795     1.051292
 C     3.022016    -0.877655    -1.245575
 C     2.613649     1.371652     0.382253
 P     1.670698    -0.005341    -0.358293
 P    -1.984497     0.400110    -0.032991
 C    -0.426897    -1.211503    -2.414198
 O    -0.519598    -2.193245    -3.001982
 C    -1.065075     2.408689     1.529767
 C    -0.137086     1.872693     2.417717
 H    -0.190004     0.813660     2.670959
 C    -1.012591     3.754684     1.135492
 C    -2.007214     4.281714     0.148738
 H    -1.809363     5.335633    -0.089328
 H    -1.974457     3.699671    -0.785676
 H    -3.036431     4.198103     0.531118
 C     0.850050     2.691049     2.961324
 H     1.579502     2.270250     3.655572
 C    -0.010973     4.552165     1.693725
 H     0.046780     5.604193     1.400867
 C     0.910004     4.034395     2.604096
 H     1.683758     4.680255     3.024417
 C    -4.666296     1.294248    -0.115537
 H    -4.444310     1.818491     0.815491
 C    -3.958567    -0.115840    -1.935043
 H    -3.179057    -0.686114    -2.446114
 C    -5.939630     1.361032    -0.672946
 H    -6.714471     1.946757    -0.169884
 C    -5.238942    -0.057213    -2.476450
 H    -5.454714    -0.594389    -3.404242
 C    -6.251049     0.688019    -1.860447
 C    -7.617746     0.789388    -2.471409
 H    -7.676095     1.646830    -3.162892
 H    -7.869984    -0.112281    -3.048085
 H    -8.392424     0.935665    -1.704764
 C    -2.544340    -0.862235     2.432634
 H    -2.618001     0.143903     2.850428
 C    -2.161532    -2.322472     0.554837
 H    -1.901580    -2.475215    -0.494985
 C    -2.765148    -1.975880     3.242144
 H    -2.994151    -1.831910     4.301919
 C    -2.412629    -3.423420     1.361219
 H    -2.350859    -4.426180     0.932278
 C    -2.708346    -3.271550     2.722704
 C    -2.939804    -4.474915     3.586737
 H    -3.152431    -4.192878     4.627404
 H    -3.787214    -5.074169     3.217564
 H    -2.055549    -5.132378     3.584837
 C     1.215146    -2.233458     1.157015
 C     1.108823    -3.096536     0.064719
 H     1.293801    -2.731762    -0.944339
 C     0.993010    -2.701599     2.466322
 C     1.061667    -1.758073     3.626336
 H     1.082495    -2.305339     4.578611
 H     1.946024    -1.106833     3.570014
 H     0.177518    -1.100401     3.637720
 C     0.794394    -4.439505     0.266123
 H     0.717201    -5.103360    -0.598099
 C     0.695336    -4.053492     2.636295
 H     0.534839    -4.426056     3.651949
 C     0.595509    -4.926813     1.553329
 H     0.362690    -5.981321     1.717772
 C     3.071101    -0.813949    -2.637996
 H     2.287292    -0.270621    -3.170644
 C     4.021366    -1.585579    -0.564564
 H     3.992438    -1.661533     0.524378
 C     4.103214    -1.437144    -3.338509
 H     4.126875    -1.374168    -4.429853
 C     5.039340    -2.213195    -1.269175
 H     5.804815    -2.771731    -0.722838
 C     5.101989    -2.148628    -2.669503
 C     6.209273    -2.833550    -3.414825
 H     6.205530    -3.918340    -3.222567
 H     6.120251    -2.682396    -4.499506
 H     7.194184    -2.454142    -3.099235
 C     3.471615     1.180057     1.470753
 H     3.521046     0.204203     1.956144
 C     2.550815     2.632403    -0.213045
 H     1.866104     2.794500    -1.047966
 C     4.244522     2.232303     1.948754
 H     4.904521     2.067580     2.805351
 C     3.334995     3.677528     0.265020
 H     3.267194     4.659047    -0.212035
 C     4.191775     3.499723     1.355582
 C     4.994120     4.644023     1.900723
 H     5.308632     5.333004     1.103301
 H     4.398935     5.231011     2.621075
 H     5.893002     4.294111     2.428355
