 104
scf done:    -3037.443280
 C    -1.079056    -0.786315    -3.865025
 H    -1.635781    -1.712481    -4.040063
 H    -1.616371     0.117258    -4.167984
 C     0.342757    -0.805418    -3.916279
 H     0.861024    -1.744903    -4.133644
 H     0.879433     0.086438    -4.253686
 H    -0.272844     0.936827    -2.200035
Rh    -0.289005    -0.619251    -1.871555
 O    -1.351798     0.763742     0.909177
 C    -3.159659     1.289189    -1.123117
 C    -3.096848    -1.266513     0.228242
 O     1.697004    -1.529634     0.488772
 C     3.180672    -0.347027    -1.569869
 C     1.790931     1.131372     0.603825
 P     1.585528    -0.249834    -0.611295
 P    -1.967507    -0.002388    -0.481397
 C    -0.232732    -2.523419    -1.600752
 O    -0.114028    -3.657858    -1.518708
 C    -2.083724     1.456463     1.827882
 C    -2.075285     2.853982     1.784248
 H    -1.477886     3.356516     1.020483
 C    -2.785198     0.795548     2.841220
 H    -2.746827    -0.292931     2.904594
 C    -2.801493     3.588936     2.717779
 H    -2.808756     4.680178     2.701358
 C    -3.516071     1.526720     3.773704
 H    -4.075552     1.032151     4.569654
 C    -3.524824     2.914520     3.694642
 F    -4.226579     3.613539     4.585781
 H    -2.841829     2.237863    -0.665561
 H    -2.929292     1.361242    -2.194229
 C    -4.617669     1.043310    -0.877795
 C    -5.240654     1.573392     0.257502
 H    -4.661988     2.204788     0.936044
 C    -5.362163     0.231501    -1.760122
 C    -4.739662    -0.338024    -3.003431
 H    -3.794133    -0.866347    -2.800671
 H    -4.496465     0.456023    -3.729083
 H    -5.421747    -1.041781    -3.499681
 C    -6.577059     1.303012     0.539876
 H    -7.040408     1.726403     1.433998
 C    -6.702672    -0.030913    -1.460317
 H    -7.281417    -0.661816    -2.140739
 C    -7.311297     0.491818    -0.321011
 H    -8.359616     0.267470    -0.110412
 H    -3.750238    -0.785179     0.975674
 H    -3.765873    -1.521371    -0.604259
 C    -2.419226    -2.497895     0.760637
 C    -1.264868    -2.397277     1.547054
 H    -0.842686    -1.413542     1.756178
 C    -2.933371    -3.775290     0.453857
 C    -4.154756    -3.943035    -0.405349
 H    -5.020842    -3.390235    -0.008320
 H    -4.437350    -5.001872    -0.481088
 H    -3.980904    -3.574749    -1.430424
 C    -0.614090    -3.530529     2.026225
 H     0.297732    -3.422613     2.617860
 C    -2.270838    -4.902300     0.949175
 H    -2.664861    -5.893337     0.707880
 C    -1.120379    -4.790630     1.726400
 H    -0.617387    -5.690184     2.089041
 C     2.801130    -1.985668     1.134221
 C     3.221040    -1.423070     2.343628
 H     2.656704    -0.595929     2.775469
 C     3.483692    -3.087881     0.609302
 H     3.111440    -3.547823    -0.308104
 C     4.345382    -1.923254     2.994947
 H     4.694608    -1.494528     3.935929
 C     4.606502    -3.594266     1.257976
 H     5.154975    -4.451100     0.862800
 C     5.031927    -2.996348     2.438861
 F     6.109635    -3.473292     3.060285
 H     3.414963    -1.423715    -1.571136
 H     2.862841    -0.112815    -2.594250
 C     4.385327     0.458060    -1.180202
 C     5.314932    -0.053734    -0.265427
 H     5.140385    -1.035466     0.178358
 C     4.623955     1.717279    -1.772780
 C     3.684824     2.296900    -2.789366
 H     3.655991     1.683486    -3.705459
 H     3.995597     3.310433    -3.075491
 H     2.654712     2.363683    -2.408708
 C     6.464610     0.654646     0.074049
 H     7.174304     0.228990     0.787117
 C     5.782633     2.416238    -1.416355
 H     5.966416     3.392357    -1.873230
 C     6.699588     1.899329    -0.504671
 H     7.596371     2.468644    -0.248867
 H     0.935510     0.966257     1.279246
 H     2.713426     0.901763     1.151090
 C     1.807299     2.558208     0.130957
 C     0.774224     3.052059    -0.674356
 H    -0.023603     2.371820    -0.971887
 C     2.835131     3.434924     0.539715
 C     3.912963     3.001261     1.489423
 H     4.468241     2.127893     1.118600
 H     3.490613     2.731081     2.471551
 H     4.639352     3.808907     1.650669
 C     0.766272     4.369646    -1.124426
 H    -0.046396     4.721086    -1.764936
 C     2.816008     4.753604     0.071113
 H     3.618696     5.429511     0.378525
 C     1.802852     5.224251    -0.760315
 H     1.819400     6.258901    -1.111268
