  90
scf done:    -3300.917568
 C     1.013127    -3.665697     2.358146
 H     1.726488    -4.362288     1.909678
 H     1.376821    -3.157249     3.254372
 C    -0.370617    -3.838773     2.157418
 H    -0.735789    -4.675710     1.555853
 H    -1.085785    -3.461277     2.892362
 H    -0.011299    -1.307773     2.174686
Rh     0.319345    -2.202975     0.902308
 O     2.323171     0.449327     1.635573
 O     3.543179    -1.525809     0.757280
 O     2.112894    -0.097417    -0.860356
 O    -1.948547    -1.395653    -1.377498
 O    -2.916728    -1.439337     0.998003
 O    -1.461902     0.491186     0.307172
 P    -1.504171    -1.151211     0.191110
 P     2.066360    -0.838582     0.624314
 C     0.644578    -3.303087    -0.650627
 O     0.821676    -3.929332    -1.588512
 C     1.308116     1.320808     1.969526
 C     0.657056     1.173087     3.190981
 H     0.953364     0.361902     3.857757
 C     0.957511     2.356877     1.107033
 H     1.465068     2.464066     0.148004
 C    -0.359846     2.060716     3.535694
 H    -0.867299     1.942320     4.497370
 C    -0.058187     3.235078     1.467127
 H    -0.336441     4.035637     0.776719
 C    -0.744979     3.097853     2.678603
 C    -1.876050     4.021225     3.023113
 H    -2.777268     3.766677     2.440868
 H    -1.626905     5.068120     2.794014
 H    -2.140521     3.959523     4.088421
 C     4.801520    -0.964431     0.738896
 C     5.238234    -0.136662     1.771436
 H     4.565220     0.093140     2.596626
 C     5.648832    -1.289812    -0.318996
 H     5.284141    -1.949371    -1.107474
 C     6.519292     0.407582     1.718006
 H     6.887697     1.067023     2.505852
 C     6.928340    -0.748873    -0.373468
 H     7.606118    -0.972286    -1.198957
 C     7.345452     0.102404     0.643734
 F     8.567308     0.631486     0.589994
 C     3.183294     0.486475    -1.495699
 C     3.503417     0.011867    -2.766902
 H     2.906108    -0.797036    -3.191627
 C     3.919769     1.525622    -0.923215
 H     3.675121     1.883199     0.076247
 C     4.578582     0.556338    -3.463341
 H     4.853597     0.198982    -4.457249
 C     5.000587     2.065150    -1.613585
 H     5.606406     2.862181    -1.179625
 C     5.320388     1.572316    -2.872953
 F     6.359030     2.086109    -3.529577
 C    -3.228359    -1.470360    -1.877519
 C    -3.759303    -0.408058    -2.604427
 H    -3.161955     0.489901    -2.762450
 C    -3.975885    -2.630440    -1.680229
 H    -3.543298    -3.454508    -1.110617
 C    -5.053693    -0.505049    -3.109012
 H    -5.466803     0.337433    -3.670271
 C    -5.268319    -2.709851    -2.190099
 H    -5.852392    -3.618586    -2.020897
 C    -5.834887    -1.649255    -2.909253
 C    -7.219937    -1.753483    -3.478589
 H    -7.874376    -2.364264    -2.839727
 H    -7.202457    -2.227098    -4.474466
 H    -7.683214    -0.763360    -3.596343
 C    -3.803173    -0.486237     1.438218
 C    -5.028283    -0.323626     0.793355
 H    -5.267244    -0.939622    -0.074122
 C    -3.477463     0.293514     2.548726
 H    -2.507319     0.159976     3.029328
 C    -5.930592     0.631850     1.256751
 H    -6.895475     0.781264     0.769285
 C    -4.375200     1.250533     3.011414
 H    -4.143567     1.876605     3.874577
 C    -5.591991     1.410311     2.356737
 F    -6.451267     2.330090     2.796570
 C    -1.718738     1.427169    -0.653974
 C    -2.819618     2.268809    -0.503124
 H    -3.481128     2.133870     0.353331
 C    -0.851017     1.573893    -1.736756
 H     0.014949     0.914465    -1.820773
 C    -3.063435     3.261339    -1.448709
 H    -3.918421     3.933626    -1.358326
 C    -1.097704     2.561134    -2.687348
 H    -0.438445     2.698623    -3.546231
 C    -2.201695     3.392827    -2.532062
 F    -2.436373     4.340363    -3.439756
