 102
scf done:    -3061.286842
 C    -0.682675    -4.434759    -1.101974
 H    -1.277760    -5.006151    -0.384079
 H    -1.172162    -4.263069    -2.063972
 C     0.726743    -4.447063    -1.023191
 H     1.225372    -5.031473    -0.244874
 H     1.328882    -4.279664    -1.919590
 H     0.106191    -2.087620    -1.777874
Rh    -0.001677    -2.552533    -0.260973
 O    -2.236968    -0.450095    -1.571655
 O    -3.217161    -1.809479     0.345114
 O    -1.574886     0.087715     0.852761
 O     2.284179    -0.813842     1.403628
 O     3.128798    -1.623115    -0.876014
 O     1.504939     0.330699    -0.761022
 P     1.739584    -1.173012    -0.111547
 P    -1.777723    -1.190299    -0.179404
 C    -0.080410    -3.129553     1.579395
 O    -0.122069    -3.434462     2.679657
 C    -2.464039     0.892783    -1.764921
 C    -3.763410     1.359993    -1.940771
 H    -4.599567     0.660350    -1.909045
 C    -1.382596     1.770259    -1.801784
 H    -0.375724     1.373684    -1.668886
 C    -3.972422     2.724544    -2.130129
 H    -4.995080     3.090369    -2.257121
 C    -1.611738     3.130701    -1.979688
 H    -0.758180     3.814324    -1.982952
 C    -2.908942     3.635047    -2.144211
 C    -3.143983     5.102088    -2.360989
 H    -4.165054     5.393931    -2.075963
 H    -3.009512     5.372597    -3.421801
 H    -2.438250     5.713143    -1.779001
 C    -4.464800    -1.517888    -0.157104
 C    -4.856391    -2.056983    -1.382158
 H    -4.157737    -2.686209    -1.935979
 C    -5.339806    -0.710398     0.564797
 H    -5.025818    -0.293413     1.521681
 C    -6.117685    -1.764530    -1.890748
 H    -6.410987    -2.180759    -2.858457
 C    -6.601007    -0.432075     0.042787
 H    -7.277853     0.210940     0.612027
 C    -7.013853    -0.944953    -1.191787
 C    -8.382396    -0.655824    -1.737100
 H    -8.368212    -0.559542    -2.832817
 H    -8.795275     0.272913    -1.317828
 H    -9.086505    -1.468397    -1.491191
 C    -2.477654     0.657472     1.716226
 C    -2.797751     0.003275     2.905339
 H    -2.351492    -0.969709     3.118061
 C    -3.024285     1.905349     1.428400
 H    -2.757315     2.410599     0.499765
 C    -3.696941     0.590910     3.789881
 H    -3.954101     0.066203     4.714107
 C    -3.919986     2.479099     2.327352
 H    -4.356026     3.453221     2.089408
 C    -4.279382     1.835834     3.517385
 C    -5.229784     2.472700     4.489606
 H    -4.683907     3.018994     5.277093
 H    -5.857124     1.721489     4.991643
 H    -5.893159     3.193865     3.990951
 C     3.589871    -0.674511     1.811279
 C     4.106368     0.589575     2.084434
 H     3.476582     1.469921     1.954764
 C     4.381851    -1.809320     1.980889
 H     3.960425    -2.792214     1.763777
 C     5.428614     0.709810     2.504358
 H     5.830026     1.706805     2.705654
 C     5.701924    -1.670152     2.398610
 H     6.320196    -2.564310     2.516466
 C     6.253065    -0.409928     2.664299
 C     7.670448    -0.270203     3.139096
 H     8.088273     0.712515     2.876889
 H     8.319796    -1.044745     2.705351
 H     7.732121    -0.370071     4.235828
 C     3.931845    -0.838996    -1.669598
 C     5.173458    -0.416460    -1.202159
 H     5.493322    -0.691178    -0.196657
 C     3.507475    -0.493331    -2.952105
 H     2.529132    -0.830071    -3.299312
 C     5.979468     0.369881    -2.022044
 H     6.948900     0.706244    -1.644232
 C     4.323432     0.297339    -3.755104
 H     3.977715     0.575586    -4.754520
 C     5.572776     0.746660    -3.307070
 C     6.457697     1.576891    -4.191185
 H     7.159010     2.185424    -3.602281
 H     5.870315     2.253434    -4.829322
 H     7.059269     0.939105    -4.860443
 C     1.841010     1.548364    -0.215710
 C     2.886778     2.286947    -0.761745
 H     3.462013     1.878160    -1.592817
 C     1.089198     2.058471     0.842506
 H     0.263673     1.466682     1.238618
 C     3.192206     3.534500    -0.221167
 H     4.022087     4.105950    -0.645883
 C     1.411858     3.304240     1.370288
 H     0.823448     3.693322     2.205872
 C     2.469799     4.064844     0.853665
 C     2.793161     5.417607     1.419201
 H     3.802969     5.743782     1.132267
 H     2.732976     5.419813     2.517895
 H     2.084334     6.179984     1.054999
