  80
scf done:    -3119.935707
 C    -0.753052    -3.954578    -0.562042
 H    -1.235966    -4.436394     0.293270
 H    -1.373588    -3.906383    -1.460735
 C     0.654891    -3.950201    -0.672091
 H     1.269262    -4.426976     0.097530
 H     1.126432    -3.898204    -1.656874
 H    -0.138576    -1.717169    -1.620234
Rh    -0.012128    -1.981001    -0.054419
 O    -2.023084     0.318005    -1.338727
 C    -3.448674    -1.640591    -0.127156
 C    -2.191407     0.443650     1.388386
 O     2.033578     0.250068     1.233170
 C     3.418009    -1.633565    -0.141090
 C     2.117877     0.523126    -1.499398
 P     1.852366    -0.693899    -0.171373
 P    -1.887110    -0.706074     0.006085
 C     0.145609    -2.348833     1.821540
 O     0.246917    -2.566849     2.941080
 C    -2.736370     1.485253    -1.328136
 C    -4.082688     1.505387    -1.696012
 H    -4.576735     0.575510    -1.979673
 C    -2.093584     2.671059    -0.963986
 H    -1.039902     2.636572    -0.682772
 C    -4.788588     2.706496    -1.686646
 H    -5.841985     2.748748    -1.969269
 C    -2.793650     3.872584    -0.952015
 H    -2.313535     4.809744    -0.665403
 C    -4.137256     3.874392    -1.309660
 F    -4.813546     5.021961    -1.294464
 C    -4.080741    -2.154954     1.011680
 H    -3.708073    -1.900407     2.007297
 C    -3.925602    -2.005563    -1.392567
 H    -3.418172    -1.632494    -2.285539
 C    -5.186041    -2.992831     0.894051
 H    -5.694242    -3.396587     1.771522
 C    -5.032062    -2.839115    -1.523127
 H    -5.419891    -3.128585    -2.501513
 C    -5.650357    -3.320523    -0.374504
 F    -6.708660    -4.117481    -0.492570
 C    -3.456301     0.984108     1.668158
 H    -4.332304     0.646668     1.110802
 C    -1.080873     0.897621     2.111338
 H    -0.089489     0.489595     1.895846
 C    -3.609485     1.960109     2.644957
 H    -4.583723     2.395859     2.872853
 C    -1.221334     1.877037     3.090802
 H    -0.364502     2.241826     3.660033
 C    -2.485584     2.396359     3.340958
 F    -2.629088     3.333973     4.270676
 C     2.784493     1.390204     1.303984
 C     2.184635     2.618140     1.012769
 H     1.134229     2.637095     0.717612
 C     4.126735     1.342651     1.685287
 H     4.587201     0.380891     1.913414
 C     2.922440     3.794642     1.087534
 H     2.475682     4.763726     0.859035
 C     4.870663     2.518094     1.761172
 H     5.921457     2.507339     2.056218
 C     4.261180     3.729149     1.456913
 F     4.973873     4.852585     1.524430
 C     4.049195    -2.034843    -1.324543
 H     3.675186    -1.684725    -2.289833
 C     3.899102    -2.117478     1.083003
 H     3.395035    -1.834226     2.010534
 C     5.155343    -2.880049    -1.289635
 H     5.661594    -3.198019    -2.202790
 C     5.006521    -2.957363     1.131456
 H     5.397200    -3.337345     2.077176
 C     5.622675    -3.326696    -0.059772
 F     6.681831    -4.130147    -0.019811
 C     3.367859     1.122432    -1.724412
 H     4.242876     0.797912    -1.158030
 C     1.010649     0.957237    -2.238104
 H     0.034589     0.495181    -2.071387
 C     3.508344     2.139355    -2.660554
 H     4.470621     2.619819    -2.844989
 C     1.138843     1.977659    -3.176653
 H     0.283918     2.328683    -3.757298
 C     2.386899     2.556376    -3.371722
 F     2.517051     3.532617    -4.263126
