  80
scf done:    -5281.609139
 C    -1.931656    -1.426033    -3.158592
 H    -2.590117    -2.288073    -3.016407
 H    -2.444720    -0.524468    -3.504342
 C    -0.565847    -1.615545    -3.464411
 H    -0.179581    -2.633773    -3.573549
 H    -0.022747    -0.860745    -4.038930
 H    -0.627131     0.459850    -1.968425
Rh    -0.767122    -1.012761    -1.380086
 O    -3.182493     1.274783    -0.606942
 C    -4.025512    -1.172622    -0.279635
 C    -2.377207     0.034005     1.660846
 O     1.494316    -1.211546     1.007701
 C     2.764774    -0.685750    -1.339801
 C     1.370039     1.347650     0.080750
 P     1.195316    -0.391374    -0.450715
 P    -2.497159    -0.185797    -0.151811
 C    -0.762760    -2.811861    -0.712522
 O    -0.702955    -3.880078    -0.304085
 C    -2.457824     2.357463    -1.018381
 C    -2.207367     2.545596    -2.377854
 H    -2.556297     1.799292    -3.092430
 C    -2.024220     3.301154    -0.087497
 H    -2.221466     3.139925     0.973313
 C    -1.520864     3.676485    -2.809249
 H    -1.312934     3.831615    -3.868941
 C    -1.350048     4.440475    -0.514958
 H    -1.005970     5.187227     0.201454
 C    -1.094511     4.616274    -1.873168
Cl    -0.206249     6.010232    -2.400322
 C    -5.061014    -0.802748    -1.142152
 H    -4.996229     0.138728    -1.690067
 C    -4.120118    -2.377072     0.427712
 H    -3.320528    -2.680589     1.109221
 C    -6.177611    -1.620845    -1.296443
 H    -6.991442    -1.335445    -1.965008
 C    -5.229235    -3.201326     0.279316
 H    -5.308332    -4.139068     0.831299
 C    -6.254503    -2.817066    -0.586234
Cl    -7.638440    -3.838822    -0.776394
 C    -1.381613    -0.638434     2.372926
 H    -0.652044    -1.256949     1.843860
 C    -3.284754     0.849913     2.348779
 H    -4.070711     1.369394     1.794914
 C    -1.284565    -0.500981     3.756653
 H    -0.507330    -1.023407     4.316988
 C    -3.187387     1.008003     3.725900
 H    -3.883953     1.648207     4.269785
 C    -2.184117     0.328921     4.422644
Cl    -2.057602     0.526107     6.136115
 C     2.745571    -1.513196     1.470880
 C     3.418984    -0.649096     2.334960
 H     2.947525     0.284711     2.642439
 C     3.343964    -2.711539     1.076260
 H     2.800167    -3.379250     0.405798
 C     4.695718    -0.972673     2.787604
 H     5.232779    -0.302720     3.460876
 C     4.620037    -3.036455     1.520754
 H     5.099412    -3.965350     1.208382
 C     5.294695    -2.159970     2.371062
Cl     6.890078    -2.553911     2.918077
 C     2.784031    -1.687379    -2.314950
 H     1.843350    -2.172242    -2.586789
 C     3.965175    -0.048756    -0.993604
 H     3.972811     0.735062    -0.233758
 C     3.974701    -2.063323    -2.929278
 H     3.993291    -2.844698    -3.690490
 C     5.161327    -0.414577    -1.598377
 H     6.099254     0.070941    -1.325043
 C     5.158518    -1.425719    -2.561014
Cl     6.645455    -1.889846    -3.309528
 C     1.056731     1.728238     1.389335
 H     0.734983     0.977024     2.112434
 C     1.737862     2.332224    -0.844202
 H     1.958015     2.057789    -1.879107
 C     1.146579     3.060441     1.783213
 H     0.904283     3.358679     2.804549
 C     1.832105     3.665875    -0.463480
 H     2.103003     4.437680    -1.185015
 C     1.541675     4.019377     0.853700
Cl     1.625659     5.682853     1.327726
