  98
scf done:    -2760.499680
 C    -0.553774    -1.185452     3.368615
 H    -1.378330    -0.710589     3.909069
 H    -0.706959    -2.249730     3.166582
 C     0.761083    -0.687522     3.517321
 H     0.934893     0.168555     4.176722
 H     1.617265    -1.359176     3.417847
 H     0.593838    -1.501040     1.118659
Rh    -0.011511    -0.109860     1.571779
 O    -1.555543    -2.325309    -0.478226
 C    -3.217811    -1.365261     1.319028
 C    -2.562497     0.111837    -1.108342
 O     1.290258     1.416365    -1.195756
 C     3.062194     1.743122     0.839862
 C     2.621389    -0.771891    -0.539463
 P     1.706406     0.610376     0.239852
 P    -1.785436    -0.838005     0.289496
 C    -0.628532     1.573326     2.248537
 O    -0.939778     2.560287     2.742999
 C    -0.448188    -2.676047    -1.191300
 C    -0.184267    -2.095267    -2.432798
 H    -0.864119    -1.334280    -2.817414
 C     0.375149    -3.692606    -0.678157
 C     0.051195    -4.326438     0.638498
 H     0.131255    -3.588082     1.451864
 H    -0.982538    -4.704424     0.651345
 H     0.733285    -5.159311     0.855860
 C     0.928166    -2.495354    -3.171041
 H     1.138332    -2.025440    -4.134308
 C     1.482268    -4.078003    -1.440326
 H     2.137795    -4.861954    -1.051377
 C     1.769383    -3.485989    -2.669972
 H     2.651023    -3.796721    -3.234004
 H    -3.371002    -0.534343     2.024379
 H    -2.799218    -2.193471     1.914916
 C    -4.520936    -1.756004     0.681544
 C    -4.596008    -2.683938    -0.365985
 H    -3.678489    -3.141721    -0.738783
 C    -5.710738    -1.187620     1.152920
 H    -5.667760    -0.453988     1.962065
 C    -5.824515    -3.010040    -0.938224
 H    -5.861845    -3.729468    -1.760114
 C    -6.939728    -1.521674     0.590418
 H    -7.853668    -1.060769     0.973004
 C    -7.001014    -2.429942    -0.465202
 H    -7.962611    -2.689032    -0.914681
 H    -3.086157    -0.627026    -1.731999
 H    -1.725659     0.533062    -1.685558
 C    -3.500477     1.196102    -0.668801
 C    -3.015748     2.340276    -0.026728
 H    -1.941230     2.461970     0.106565
 C    -4.878647     1.082817    -0.888034
 H    -5.272984     0.198337    -1.394245
 C    -3.885896     3.334405     0.412466
 H    -3.481791     4.217162     0.913525
 C    -5.749792     2.081508    -0.459578
 H    -6.822230     1.974222    -0.639764
 C    -5.257932     3.206808     0.201225
 H    -5.942644     3.987471     0.541663
 C     0.505972     2.517056    -1.308660
 C     0.381907     3.475734    -0.300550
 H     0.915237     3.352794     0.640499
 C    -0.167386     2.679203    -2.535304
 C     0.023996     1.677668    -3.633153
 H     0.978561     1.847965    -4.159131
 H     0.072844     0.653721    -3.238348
 H    -0.783522     1.742567    -4.375434
 C    -0.420889     4.598832    -0.495245
 H    -0.511158     5.336656     0.305127
 C    -0.974785     3.806339    -2.696579
 H    -1.514192     3.931607    -3.639340
 C    -1.108574     4.764657    -1.692353
 H    -1.752720     5.632520    -1.846042
 H     2.582133     2.536328     1.431782
 H     3.502726     2.206118    -0.055495
 C     4.113681     1.052271     1.656771
 C     5.385996     0.807244     1.127119
 H     5.618688     1.134795     0.111401
 C     3.842202     0.637218     2.966200
 H     2.860483     0.842389     3.394569
 C     6.354038     0.145521     1.879591
 H     7.340399    -0.037238     1.446382
 C     4.806664    -0.029199     3.717900
 H     4.573616    -0.347151     4.737097
 C     6.065875    -0.282550     3.174379
 H     6.824476    -0.803606     3.763434
 H     1.839343    -1.296100    -1.108671
 H     2.859482    -1.434256     0.305802
 C     3.838287    -0.552675    -1.389343
 C     4.954164    -1.376759    -1.191755
 H     4.923186    -2.132237    -0.402402
 C     3.899328     0.413233    -2.402113
 H     3.035398     1.054466    -2.577816
 C     6.102296    -1.233729    -1.965618
 H     6.960853    -1.886075    -1.787609
 C     5.052549     0.565166    -3.171202
 H     5.083218     1.331681    -3.949749
 C     6.159516    -0.254189    -2.956430
 H     7.061442    -0.132901    -3.561100
