  92
scf done:    -3600.863779
 C    -1.113711     0.689840    -3.316168
 H    -1.237983    -0.152678    -4.002574
 H    -2.048079     1.196895    -3.063355
 C     0.113672     1.375404    -3.253221
 H     0.937942     1.075708    -3.906305
 H     0.146206     2.420931    -2.932871
 H    -0.639543     1.384831    -0.822074
Rh    -0.069692     0.074111    -1.501606
 O    -3.254516     0.361528    -0.628272
 C    -2.742862    -2.070304    -1.549274
 C    -2.122944    -1.319661     1.181937
 O     2.128014     0.359629     1.208031
 C     3.429735     0.628542    -1.137256
 C     1.679937     2.643950    -0.084795
 P     1.765164     0.838428    -0.377808
 P    -1.976309    -0.751509    -0.553695
 C     0.573456    -1.557975    -2.270212
 O     0.928047    -2.546619    -2.731527
 C    -3.177346     1.546781     0.047324
 C    -2.743006     2.700063    -0.611744
 H    -2.471486     2.646415    -1.665524
 C    -3.546983     1.615093     1.392999
 H    -3.892160     0.715844     1.903103
 C    -2.644934     3.906104     0.074742
 H    -2.281766     4.802730    -0.428780
 C    -3.457793     2.820680     2.082422
 H    -3.734409     2.878924     3.136159
 C    -2.990394     3.955189     1.423139
Cl    -2.806120     5.441049     2.302445
 C    -3.729309    -1.730958    -2.483006
 H    -4.087789    -0.701180    -2.525563
 C    -2.261934    -3.393964    -1.469316
 C    -1.224810    -3.825702    -0.471434
 H    -1.681618    -4.033637     0.509654
 H    -0.457876    -3.057546    -0.296995
 H    -0.718459    -4.740052    -0.810147
 C    -4.258773    -2.693487    -3.336393
 H    -5.030966    -2.416524    -4.057796
 C    -2.809159    -4.341381    -2.342395
 H    -2.444266    -5.370936    -2.292119
 C    -3.795891    -4.005449    -3.265035
 H    -4.200059    -4.770339    -3.932368
 C    -0.978740    -1.158528     1.966053
 H    -0.095152    -0.719221     1.501112
 C    -3.295897    -1.878717     1.742534
 C    -4.566395    -2.085596     0.969840
 H    -4.489112    -2.962011     0.307100
 H    -4.798581    -1.226759     0.326475
 H    -5.409227    -2.255211     1.654268
 C    -0.955999    -1.549582     3.301623
 H    -0.045641    -1.424641     3.890013
 C    -3.251686    -2.257926     3.088604
 H    -4.149334    -2.689415     3.540190
 C    -2.101852    -2.103234     3.862229
 H    -2.107330    -2.417497     4.908870
 C     2.389503    -0.907063     1.600985
 C     2.575481    -1.104897     2.974814
 H     2.519561    -0.240278     3.639142
 C     2.478176    -1.997923     0.730203
 H     2.367041    -1.859444    -0.343664
 C     2.818725    -2.377007     3.477432
 H     2.962371    -2.533803     4.547758
 C     2.710758    -3.274941     1.235494
 H     2.769983    -4.128311     0.558138
 C     2.874061    -3.464263     2.604794
Cl     3.159085    -5.056156     3.230236
 C     3.471844     0.102993    -2.433329
 H     2.529019    -0.145615    -2.922431
 C     4.636748     0.976960    -0.483616
 C     4.710563     1.546829     0.903657
 H     4.616351     0.752208     1.660108
 H     3.910887     2.272429     1.100292
 H     5.679116     2.042604     1.056790
 C     4.675427    -0.096271    -3.102417
 H     4.678436    -0.508331    -4.113777
 C     5.835005     0.766012    -1.177058
 H     6.774205     1.032111    -0.684489
 C     5.865751     0.235731    -2.464032
 H     6.824051     0.087205    -2.967697
 C     2.318737     3.464942    -1.023881
 H     2.935480     3.012022    -1.803629
 C     0.874054     3.220742     0.922001
 C     0.128000     2.410397     1.937766
 H     0.811612     1.832328     2.573708
 H    -0.538933     1.685207     1.446709
 H    -0.487769     3.059025     2.573345
 C     2.182159     4.849287    -0.979628
 H     2.689798     5.470394    -1.721061
 C     0.759433     4.616082     0.948752
 H     0.129231     5.071285     1.717455
 C     1.398679     5.427186     0.014991
 H     1.279873     6.512245     0.065440
