  92
scf done:    -3277.078551
 C     0.755316     1.154830    -3.740167
 H     1.571135     1.882645    -3.789606
 H     0.994896     0.184365    -4.184963
 C    -0.589716     1.610384    -3.736186
 H    -0.795582     2.683883    -3.788165
 H    -1.373160     0.985088    -4.173422
 H    -0.567209    -0.471836    -2.284822
Rh    -0.060152     0.943937    -1.753394
 O     1.105349    -0.444347     1.030548
 C     1.672459    -2.056824    -1.193741
 C     3.238969     0.275102    -0.572251
 O    -2.512526     2.142309     0.283934
 C    -3.544322     0.636061    -1.622460
 C    -2.248631    -0.496385     0.716176
 P    -2.021442     0.793304    -0.599949
 P     1.481092    -0.285659    -0.624382
 C     0.474297     2.725597    -1.262535
 O     0.731707     3.824161    -1.081297
 C     1.552047    -1.414790     1.878646
 C     0.755720    -2.543132     2.101729
 H    -0.194319    -2.644264     1.571888
 C     2.755707    -1.265720     2.573379
 H     3.362521    -0.372279     2.420560
 C     1.172370    -3.530752     2.990660
 H     0.566152    -4.418963     3.176741
 C     3.178382    -2.252205     3.460164
 H     4.117050    -2.157991     4.008886
 C     2.384385    -3.376732     3.654573
 F     2.788115    -4.320390     4.501872
 H     0.933890    -2.639430    -0.622366
 H     1.301603    -2.017520    -2.228178
 C     3.030114    -2.692953    -1.152509
 C     3.897435    -2.553405    -2.245241
 H     3.561640    -2.007038    -3.131556
 C     3.478020    -3.426865    -0.047086
 H     2.818503    -3.574155     0.809028
 C     5.176424    -3.101762    -2.234055
 H     5.853436    -2.995959    -3.083537
 C     4.753542    -3.983870    -0.018977
 H     5.104113    -4.557715     0.840702
 C     5.592261    -3.808118    -1.112110
 F     6.814636    -4.335191    -1.089672
 H     3.785162    -0.347691     0.154625
 H     3.642522     0.008607    -1.560442
 C     3.412192     1.742636    -0.329897
 C     3.890766     2.571130    -1.351916
 H     4.147448     2.133809    -2.320216
 C     3.077472     2.330253     0.896663
 H     2.669607     1.709584     1.696561
 C     4.042907     3.940968    -1.161763
 H     4.411468     4.592912    -1.955446
 C     3.221402     3.698462     1.104656
 H     2.940198     4.173121     2.046147
 C     3.702829     4.488113     0.068432
 F     3.837351     5.798480     0.257197
 C    -1.676207     2.896652     1.049785
 C    -0.641070     2.343365     1.807482
 H    -0.434997     1.273739     1.780438
 C    -1.892952     4.276700     1.071119
 H    -2.698190     4.691255     0.462343
 C     0.166217     3.168679     2.584758
 H     0.972481     2.753177     3.191097
 C    -1.079239     5.103908     1.837909
 H    -1.222164     6.185641     1.854367
 C    -0.053090     4.537624     2.584647
 F     0.750632     5.324587     3.305754
 H    -3.602999     1.596878    -2.159423
 H    -3.298021    -0.125798    -2.376785
 C    -4.822325     0.298208    -0.913724
 C    -5.432217    -0.945575    -1.115209
 H    -4.970463    -1.667407    -1.793855
 C    -5.428593     1.199608    -0.027226
 H    -4.963517     2.171037     0.147956
 C    -6.608602    -1.291633    -0.456241
 H    -7.085400    -2.261262    -0.609305
 C    -6.601473     0.866821     0.644224
 H    -7.080075     1.561420     1.337001
 C    -7.177682    -0.378419     0.421068
 F    -8.301036    -0.701025     1.061790
 H    -1.292383    -0.509830     1.263392
 H    -3.015182    -0.092610     1.393793
 C    -2.622531    -1.891464     0.300548
 C    -3.593282    -2.588296     1.032598
 H    -4.092173    -2.091500     1.868312
 C    -2.017995    -2.547334    -0.779193
 H    -1.271031    -2.020560    -1.376146
 C    -3.953439    -3.891579     0.706034
 H    -4.713651    -4.432980     1.271948
 C    -2.371185    -3.850356    -1.125601
 H    -1.906618    -4.360865    -1.971294
 C    -3.336387    -4.509082    -0.375464
 F    -3.678877    -5.754841    -0.698524
