 100
scf done:    -3305.876875
 C    -2.386835    -0.622313    -3.325441
 H    -3.177796    -1.377158    -3.372232
 H    -2.731673     0.402722    -3.486701
 C    -1.058498    -0.977575    -3.673205
 H    -0.837203    -2.002664    -3.985988
 H    -0.394547    -0.224505    -4.107087
 H    -0.848143     0.751446    -1.831692
Rh    -1.200067    -0.769159    -1.527004
 O    -3.053252     1.706825    -0.072148
 C    -4.295363    -0.604780     0.061911
 C    -2.096471     0.028059     1.827862
 O     0.937795    -0.088593     0.876139
 C     1.817018    -2.292438    -0.522192
 C     2.101880     0.386626    -1.577565
 P     0.906026    -0.708843    -0.711624
 P    -2.602445     0.088883     0.061766
 C    -1.566679    -2.615147    -1.191626
 O    -1.755963    -3.728045    -0.980983
 C    -2.238491     2.736593    -0.401379
 C    -0.872933     2.769030    -0.098401
 H    -0.398839     1.925182     0.403838
 C    -2.822658     3.822449    -1.060391
 H    -3.887759     3.778427    -1.294473
 C    -0.107854     3.876618    -0.453665
 H     0.959221     3.911704    -0.225003
 C    -2.060588     4.931124    -1.410107
 H    -2.515773     5.778983    -1.924399
 C    -0.699415     4.953754    -1.108124
Cl     0.262796     6.328517    -1.547701
 H    -4.650312    -0.476019    -0.974208
 H    -4.161382    -1.692671     0.196436
 C    -5.292960    -0.036136     1.058958
 H    -4.960206    -0.252630     2.088695
 H    -5.310150     1.062342     0.965691
 C    -6.698466    -0.589635     0.865764
 H    -6.672998    -1.692380     0.938871
 H    -7.039176    -0.367375    -0.161844
 C    -7.709248    -0.040093     1.862700
 H    -7.365657    -0.266389     2.887795
 H    -7.723462     1.061842     1.790599
 C    -9.113756    -0.585563     1.661593
 H    -9.820358    -0.170862     2.396331
 H    -9.134668    -1.682706     1.762507
 H    -9.496801    -0.341755     0.657562
 H    -1.209890     0.674467     1.903284
 H    -2.884718     0.476674     2.453023
 C    -1.721078    -1.375226     2.281517
 H    -2.622436    -2.007433     2.371332
 H    -1.096744    -1.839692     1.499701
 C    -0.945020    -1.386796     3.590624
 H    -1.574322    -0.987328     4.406310
 H    -0.092546    -0.690971     3.499323
 C    -0.422803    -2.763721     3.973803
 H    -1.270960    -3.461696     4.087711
 H     0.175262    -3.164065     3.134527
 C     0.415709    -2.756606     5.241657
 H     0.786070    -3.762146     5.492686
 H    -0.166452    -2.392187     6.103162
 H     1.289623    -2.093253     5.135321
 C     2.043690     0.202043     1.613023
 C     2.517333     1.516001     1.662965
 H     2.000885     2.290190     1.093984
 C     2.677273    -0.789147     2.367880
 H     2.279028    -1.804773     2.357963
 C     3.641448     1.830288     2.419086
 H     4.021469     2.852495     2.453112
 C     3.802429    -0.480551     3.126844
 H     4.305745    -1.250825     3.713370
 C     4.288508     0.826413     3.139592
Cl     5.699208     1.209615     4.068145
 H     2.799436    -2.120165    -0.054337
 H     1.219618    -2.900269     0.178828
 C     1.968674    -3.023666    -1.851046
 H     0.985098    -3.087866    -2.345903
 H     2.604671    -2.431326    -2.532199
 C     2.557306    -4.418821    -1.697838
 H     1.912184    -5.009905    -1.022728
 H     3.539380    -4.352720    -1.194807
 C     2.713085    -5.156134    -3.020384
 H     1.728986    -5.212624    -3.518105
 H     3.353758    -4.559460    -3.693799
 C     3.291554    -6.553378    -2.867569
 H     3.391732    -7.060145    -3.839210
 H     2.651075    -7.182725    -2.228937
 H     4.290503    -6.524131    -2.403182
 H     1.875155     0.256273    -2.648658
 H     1.757337     1.408342    -1.341619
 C     3.593539     0.222385    -1.306083
 H     3.782807     0.079707    -0.231058
 H     3.960477    -0.694039    -1.798814
 C     4.411324     1.415204    -1.780837
 H     4.023102     2.330249    -1.296648
 H     4.259698     1.564374    -2.865278
 C     5.897474     1.283126    -1.480290
 H     6.029493     1.133741    -0.393702
 H     6.283880     0.364859    -1.957237
 C     6.714686     2.480805    -1.936091
 H     7.782667     2.357062    -1.701468
 H     6.372198     3.406788    -1.446646
 H     6.628145     2.634069    -3.023828
