 104
scf done:    -2737.663727
 C    -0.591474    -1.885365     3.125310
 H    -1.307072    -1.455643     3.831525
 H    -0.867408    -2.876525     2.754772
 C     0.772882    -1.527729     3.223666
 H     1.085053    -0.816675     3.994792
 H     1.546144    -2.244398     2.937173
 H     0.235566    -1.900351     0.721663
Rh    -0.096351    -0.546253     1.490080
 O    -1.827410    -1.797653    -1.122877
 C    -3.367804    -1.597713     0.949105
 C    -2.624721     0.801985    -0.730591
 O     1.699586     1.120783    -0.999158
 C     2.911071     1.260387     1.459594
 C     2.830902    -1.126004    -0.400033
 P     1.802262     0.177548     0.416585
 P    -1.959850    -0.699442     0.149954
 C    -0.523994     1.053565     2.431210
 O    -0.767355     2.010566     3.020448
 C    -0.740676    -1.994260    -1.906648
 C    -0.257772    -3.299397    -2.040850
 H    -0.732166    -4.093128    -1.461818
 C    -0.139849    -0.957272    -2.623885
 H    -0.497284     0.065438    -2.504491
 C     0.798823    -3.573490    -2.903620
 H     1.186168    -4.586365    -3.026884
 C     0.921599    -1.225348    -3.484809
 H     1.411959    -0.429291    -4.047372
 C     1.373044    -2.530197    -3.620118
 F     2.399662    -2.785922    -4.437896
 H    -2.836142    -2.534625     1.205104
 C    -4.558217    -1.974655     0.067848
 H    -4.209969    -2.397972    -0.885401
 H    -5.140152    -1.067892    -0.171383
 C    -5.461579    -2.964244     0.800682
 H    -6.332468    -3.215929     0.173673
 H    -4.907185    -3.907676     0.954569
 C    -5.918052    -2.420817     2.150786
 H    -6.524264    -3.172251     2.682302
 H    -6.580222    -1.551722     1.983129
 C    -4.736434    -1.982880     3.010748
 H    -4.134122    -2.866508     3.289120
 H    -5.092543    -1.539512     3.954754
 C    -3.847665    -0.989574     2.268365
 H    -4.428238    -0.074603     2.070658
 H    -2.989479    -0.690386     2.885760
 H    -1.703353     1.359830    -0.981433
 C    -3.449529     1.695823     0.201064
 H    -2.896049     1.911408     1.129007
 H    -4.365615     1.157485     0.494991
 C    -3.856498     2.997197    -0.484253
 H    -4.491239     3.589376     0.194710
 H    -2.959142     3.604279    -0.678945
 C    -4.577756     2.740370    -1.801736
 H    -4.808735     3.695353    -2.300498
 H    -5.548043     2.250486    -1.599687
 C    -3.750234     1.846267    -2.717816
 H    -2.823983     2.375784    -3.003948
 H    -4.296092     1.640619    -3.652917
 C    -3.382253     0.533350    -2.033137
 H    -4.302080    -0.033799    -1.820348
 H    -2.786083    -0.098355    -2.707021
 C     0.909812     2.195669    -1.191276
 C     0.594045     2.524597    -2.516435
 H     0.995995     1.903340    -3.318192
 C     0.428001     3.004080    -0.155030
 H     0.679258     2.782695     0.880345
 C    -0.203765     3.627015    -2.803372
 H    -0.460462     3.890249    -3.831041
 C    -0.371485     4.108731    -0.438888
 H    -0.756321     4.741252     0.362956
 C    -0.684796     4.405111    -1.757299
 F    -1.482298     5.442688    -2.024253
 H     2.178946     1.826999     2.065241
 C     3.783688     2.282322     0.727886
 H     3.183533     2.877746     0.025063
 H     4.542112     1.761827     0.122809
 C     4.477623     3.200199     1.731036
 H     5.119904     3.920035     1.198305
 H     3.713277     3.799300     2.258857
 C     5.292164     2.412252     2.750873
 H     5.750098     3.092673     3.486916
 H     6.128083     1.907794     2.232756
 C     4.438366     1.363426     3.454575
 H     3.672708     1.866700     4.072330
 H     5.052965     0.766419     4.147696
 C     3.743324     0.445617     2.453305
 H     4.507419    -0.129593     1.903542
 H     3.108875    -0.285187     2.975355
 H     2.127416    -1.440749    -1.191249
 C     3.097867    -2.359738     0.463160
 H     2.151679    -2.712497     0.898543
 H     3.763542    -2.102331     1.303777
 C     3.741552    -3.466235    -0.367320
 H     3.953565    -4.337754     0.273188
 H     3.016527    -3.804201    -1.128223
 C     5.011793    -2.990605    -1.062472
 H     5.436407    -3.797205    -1.681933
 H     5.775052    -2.749597    -0.299660
 C     4.742366    -1.753831    -1.911221
 H     4.068931    -2.022385    -2.742564
 H     5.675627    -1.391431    -2.372366
 C     4.107957    -0.638010    -1.085014
 H     4.832957    -0.309107    -0.320782
 H     3.886979     0.234300    -1.717201
