 102
scf done:    -3061.135940
 C    -1.570162    -3.708844    -0.496101
 H    -2.001777    -4.095263     0.431555
 H    -2.304365    -3.488888    -1.275861
 C    -0.243902    -4.050954    -0.850381
 H     0.333772    -4.713234    -0.196919
 H     0.039241    -4.099620    -1.905238
 H    -0.606135    -1.679493    -1.684982
Rh    -0.325264    -1.990102    -0.149089
 O    -1.768678     0.860897    -1.145938
 C    -3.555825    -1.024114    -0.697306
 C    -2.472016     0.471336     1.481260
 O     1.983285    -0.160823     1.138447
 C     3.118973    -1.639057    -0.994078
 C     1.561578     0.678583    -1.519977
 P     1.625068    -0.762855    -0.376770
 P    -1.966739    -0.400237    -0.049132
 C     0.085193    -2.500189     1.646784
 O     0.367447    -2.858695     2.698916
 C    -1.432382     2.147758    -0.893423
 C    -0.676505     2.531348     0.214211
 H    -0.303320     1.773175     0.900734
 C    -1.869868     3.105063    -1.828144
 C    -2.659735     2.670191    -3.021434
 H    -2.906552     3.524086    -3.667261
 H    -2.095175     1.933946    -3.614749
 H    -3.596315     2.178386    -2.714676
 C    -0.391767     3.877521     0.432052
 H     0.177492     4.165185     1.319234
 C    -1.548207     4.443355    -1.598564
 H    -1.883649     5.191938    -2.322116
 C    -0.825403     4.841305    -0.473124
 H    -0.603505     5.898206    -0.308380
 C    -3.988061    -0.753656    -1.992341
 H    -3.393590    -0.079003    -2.608729
 C    -4.299193    -1.911387     0.103019
 O    -3.796090    -2.149197     1.330075
 C    -4.444471    -3.041379     2.189111
 H    -5.466258    -2.702779     2.434445
 H    -3.849258    -3.073121     3.110364
 H    -4.495739    -4.056844     1.758334
 C    -5.155726    -1.331660    -2.492479
 H    -5.483278    -1.108814    -3.510154
 C    -5.472051    -2.488227    -0.390226
 H    -6.056166    -3.171259     0.227055
 C    -5.894660    -2.192174    -1.686991
 H    -6.811318    -2.650141    -2.066529
 C    -1.818533     0.173092     2.674523
 H    -1.034330    -0.585029     2.661478
 C    -3.471446     1.466781     1.478846
 O    -4.065975     1.720029     0.302794
 C    -4.935646     2.810208     0.184375
 H    -5.829959     2.693029     0.820575
 H    -5.251035     2.841493    -0.865852
 H    -4.427983     3.757477     0.434543
 C    -2.133559     0.832824     3.860727
 H    -1.608342     0.582953     4.784564
 C    -3.780341     2.143604     2.663886
 H    -4.539193     2.926069     2.670678
 C    -3.113366     1.821021     3.844536
 H    -3.366345     2.358771     4.761780
 C     3.103491     0.069008     1.874101
 C     4.223929    -0.761724     1.839154
 H     4.226699    -1.638018     1.193600
 C     3.037336     1.136946     2.789811
 C     1.775251     1.926612     2.933757
 H     1.471078     2.348161     1.967779
 H     0.944337     1.285163     3.267513
 H     1.895574     2.739238     3.663562
 C     5.329734    -0.479637     2.639061
 H     6.203170    -1.134916     2.592738
 C     4.159756     1.395061     3.580292
 H     4.116829     2.228105     4.288080
 C     5.311485     0.612852     3.500910
 H     6.174732     0.839194     4.130636
 C     3.007328    -3.013297    -1.206949
 H     2.048224    -3.477969    -0.970488
 C     4.345598    -1.004882    -1.293489
 O     4.419391     0.306575    -1.035631
 C     5.655646     0.957765    -1.095251
 H     6.388445     0.487157    -0.417617
 H     5.479705     1.987481    -0.763250
 H     6.062360     0.976426    -2.121077
 C     4.072259    -3.765249    -1.702316
 H     3.960118    -4.839996    -1.857134
 C     5.415610    -1.753873    -1.792036
 H     6.366582    -1.272383    -2.020160
 C     5.272085    -3.126800    -1.994848
 H     6.118481    -3.697362    -2.385709
 C     0.964967     0.396930    -2.752158
 H     0.576059    -0.610176    -2.921482
 C     2.031774     1.987916    -1.288305
 O     2.611062     2.251915    -0.103734
 C     3.179123     3.509263     0.122458
 H     3.949949     3.750030    -0.631157
 H     3.649970     3.458757     1.112977
 H     2.420314     4.310293     0.117832
 C     0.832045     1.361956    -3.746050
 H     0.364560     1.105704    -4.698802
 C     1.878040     2.965738    -2.278382
 H     2.206341     3.987416    -2.092172
 C     1.281045     2.653789    -3.495804
 H     1.161441     3.437500    -4.247779
