  92
scf done:    -3449.540069
 C    -0.426123    -4.401387    -1.565654
 H    -0.383171    -5.262005    -0.892117
 H    -1.411793    -4.215000    -1.998953
 C     0.739660    -3.981508    -2.247092
 H     1.676399    -4.528228    -2.101397
 H     0.657064    -3.479295    -3.214086
 H    -0.576460    -1.872691    -1.735176
Rh     0.304057    -2.594697    -0.628894
 O    -1.513086    -0.227501     0.895252
 O    -2.906670    -2.176124     0.034222
 O    -1.667431    -2.323190     2.179917
 O     1.998595    -0.236723     0.793817
 O     2.989718    -0.667064    -1.513273
 O     0.889723     0.599484    -1.379470
 P     1.547673    -0.726697    -0.739118
 P    -1.430262    -1.892941     0.628262
 C     1.483301    -3.523545     0.571350
 O     2.249837    -4.076867     1.217808
 C    -2.225218     0.658287     0.146685
 C    -2.254489     0.617207    -1.249333
 H    -1.666115    -0.130424    -1.779905
 C    -2.948860     1.637840     0.830098
 H    -2.910229     1.655416     1.921157
 C    -3.034468     1.528537    -1.952286
 H    -3.074539     1.494407    -3.042148
 C    -3.721927     2.558074     0.128185
 H    -4.297081     3.320835     0.655228
 C    -3.772641     2.488237    -1.262366
Cl    -4.760669     3.608557    -2.143948
 C    -4.103128    -1.827757     0.738146
 H    -4.489868    -2.739537     1.221846
 H    -3.872700    -1.108335     1.540310
 C    -5.106139    -1.238083    -0.227546
 H    -4.612138    -0.429123    -0.786516
 H    -5.391522    -2.000979    -0.971610
 C    -6.340480    -0.682878     0.468216
 H    -6.019574     0.020006     1.257708
 H    -6.879398    -1.495431     0.987252
 C    -7.278957     0.034014    -0.489661
 H    -6.773556     0.885425    -0.973714
 H    -7.627198    -0.640304    -1.288363
 H    -8.168287     0.423364     0.028504
 C    -0.653748    -2.840805     3.030269
 H    -1.196824    -3.294287     3.873842
 H    -0.116518    -3.652130     2.512673
 C     0.308301    -1.779183     3.519745
 H     1.047909    -2.280045     4.169711
 H     0.877558    -1.377382     2.663282
 C    -0.364235    -0.640383     4.273909
 H    -0.984072    -1.058472     5.087463
 H    -1.064786    -0.134387     3.589382
 C     0.626721     0.360181     4.845863
 H     1.307615    -0.118845     5.567972
 H     1.247828     0.805462     4.053390
 H     0.115756     1.183493     5.368114
 C     2.274157     1.059347     1.129098
 C     1.229547     1.888845     1.536824
 H     0.216370     1.484301     1.555323
 C     3.583856     1.537147     1.088766
 H     4.387112     0.871636     0.769551
 C     1.492693     3.206034     1.896531
 H     0.684579     3.868596     2.209987
 C     3.850225     2.855861     1.447563
 H     4.868512     3.246727     1.419485
 C     2.801534     3.685162     1.844957
Cl     3.127516     5.332029     2.275590
 C     3.913549    -1.738430    -1.371318
 H     4.190952    -1.846738    -0.306381
 H     3.432025    -2.678626    -1.689859
 C     5.135258    -1.436532    -2.207597
 H     5.806625    -2.311177    -2.156189
 H     4.824405    -1.343798    -3.262642
 C     5.878684    -0.180221    -1.775094
 H     6.192748    -0.294411    -0.721529
 H     5.176295     0.669280    -1.793252
 C     7.089169     0.128364    -2.640217
 H     7.820464    -0.695654    -2.617956
 H     6.798085     0.280357    -3.691951
 H     7.605545     1.040119    -2.304220
 C     1.599755     1.640109    -2.064566
 H     2.351039     2.080459    -1.388854
 H     2.133876     1.193647    -2.916260
 C     0.619801     2.690515    -2.531602
 H     1.173611     3.366589    -3.207205
 H    -0.154360     2.204330    -3.150216
 C    -0.032291     3.502381    -1.422200
 H     0.757453     3.947238    -0.792352
 H    -0.597265     2.823669    -0.764239
 C    -0.948448     4.594615    -1.947585
 H    -0.395290     5.321076    -2.565180
 H    -1.758301     4.180646    -2.567976
 H    -1.424755     5.149797    -1.125482
