  92
scf done:    -2880.298209
 C    -1.131258    -2.513428    -3.427046
 H    -1.466755    -3.516448    -3.145674
 H    -1.897749    -1.909950    -3.922596
 C     0.238297    -2.294106    -3.745856
 H     0.940251    -3.133594    -3.709683
 H     0.504239    -1.525777    -4.477223
 H    -0.592915    -0.158267    -2.673851
Rh    -0.189284    -1.439667    -1.819801
 O    -1.932734     1.044045    -0.597305
 C    -3.530438    -1.264656    -0.960928
 C    -1.751300    -0.838188     1.350389
 O     1.649146    -0.138513     0.583375
 C     3.207152    -0.643533    -1.726110
 C     1.390385     1.682974    -1.456523
 P     1.528184    -0.137389    -1.100041
 P    -1.853232    -0.634022    -0.488913
 C     0.397682    -3.046100    -0.954823
 O     0.836773    -4.023582    -0.546473
 C    -2.818202     1.889170     0.017435
 C    -2.680718     2.242333     1.362134
 H    -1.867587     1.825864     1.956230
 C    -3.827475     2.473187    -0.749981
 H    -3.902517     2.209713    -1.804965
 C    -3.580570     3.130448     1.948707
 H    -3.495103     3.412641     2.999485
 C    -4.727997     3.358584    -0.171297
 H    -5.535633     3.807068    -0.751753
 C    -4.600960     3.668829     1.177765
 F    -5.471500     4.508822     1.738634
 H    -3.495083    -2.304102    -0.588822
 H    -3.468055    -1.350204    -2.054923
 C    -4.805261    -0.570916    -0.575571
 C    -5.640811    -0.080711    -1.587696
 H    -5.347003    -0.220111    -2.631852
 C    -5.213278    -0.396819     0.753610
 H    -4.605410    -0.788877     1.570591
 C    -6.827280     0.583452    -1.287838
 H    -7.460024     0.955314    -2.097501
 C    -6.391009     0.280761     1.058385
 H    -6.678605     0.417971     2.103345
 C    -7.202118     0.778213     0.039646
 H    -8.125504     1.309336     0.281363
 H    -2.634153    -0.382484     1.820501
 H    -0.871614    -0.232426     1.616169
 C    -1.543737    -2.248149     1.812840
 C    -0.267114    -2.666638     2.204638
 H     0.557670    -1.952378     2.168307
 C    -2.595555    -3.172358     1.872759
 H    -3.609156    -2.867136     1.600187
 C    -0.041159    -3.972228     2.631003
 H     0.965263    -4.275696     2.928982
 C    -2.370442    -4.481139     2.294081
 H    -3.203345    -5.187258     2.332977
 C    -1.090992    -4.887286     2.670737
 H    -0.915319    -5.913912     3.000121
 C     2.728966    -0.406155     1.367760
 C     3.294739     0.618740     2.129836
 H     2.889573     1.627422     2.049749
 C     3.225448    -1.709997     1.469400
 H     2.755082    -2.514683     0.900192
 C     4.371811     0.347850     2.967499
 H     4.832965     1.135188     3.566439
 C     4.310997    -1.981940     2.300363
 H     4.719436    -2.990058     2.389817
 C     4.874538    -0.947081     3.036790
 F     5.911672    -1.203228     3.834079
 H     2.955075    -0.968092    -2.747742
 H     3.461141    -1.562706    -1.176378
 C     4.350825     0.323460    -1.752269
 C     5.249204     0.439655    -0.684319
 H     5.134565    -0.200810     0.191103
 C     4.548354     1.135633    -2.877956
 H     3.878700     1.034652    -3.737037
 C     6.288535     1.365268    -0.725985
 H     6.972914     1.442377     0.122190
 C     5.589149     2.061199    -2.923050
 H     5.722548     2.684999    -3.810078
 C     6.458965     2.186293    -1.840457
 H     7.274647     2.912358    -1.870935
 H     0.320557     1.820927    -1.664774
 H     1.939241     1.854497    -2.395257
 C     1.830140     2.617870    -0.371154
 C     3.110216     3.180751    -0.333939
 H     3.826879     2.952627    -1.123711
 C     0.927516     2.941527     0.650808
 H    -0.077958     2.519330     0.616686
 C     3.481720     4.031705     0.706152
 H     4.487923     4.457578     0.716471
 C     1.295340     3.792591     1.689017
 H     0.572722     4.035489     2.472119
 C     2.579748     4.338144     1.724126
 H     2.872279     5.006600     2.537424
