  56
scf done:    -2978.132829
 C    -4.044024    -2.204159     0.196486
 H    -4.434932    -2.200579     1.217663
 H    -4.739584    -1.820258    -0.554032
 C    -3.046598    -3.129060    -0.174837
 H    -2.674825    -3.845954     0.563144
 H    -2.973160    -3.461669    -1.213437
 H    -2.479426    -0.967790    -1.478473
Rh    -2.147388    -1.154755     0.072007
 O    -2.243280     2.274341    -0.333526
 O    -4.450416     1.243537    -0.393034
 O    -3.325358     1.360628     1.797846
 O     1.065451    -1.237096     0.502039
 O     0.475351    -2.422995    -1.689294
 O     0.376628     0.026334    -1.682545
 P    -0.054705    -1.194601    -0.730464
 P    -3.003554     0.909249     0.274788
 C    -1.661813    -1.387705     1.921104
 O    -1.333230    -1.498213     3.008841
 C    -0.895878     2.459439    -0.273344
 C    -0.265103     3.028697    -1.379938
 H    -0.871784     3.317558    -2.239865
 C    -0.150466     2.100617     0.850892
 H    -0.651862     1.696762     1.732140
 C     1.115254     3.182947    -1.392462
 H     1.621884     3.605757    -2.261648
 C     1.233445     2.246687     0.836275
 H     1.831388     1.953887     1.698431
 C     1.862928     2.757253    -0.294448
Cl     3.595745     2.834647    -0.349927
 C    -4.639974     1.151340    -1.787572
 H    -4.125700     1.975546    -2.307303
 H    -4.262758     0.190989    -2.178464
 H    -5.719503     1.220101    -1.976164
 C    -3.955122     2.594169     2.105089
 H    -3.419084     3.435846     1.639789
 H    -4.998074     2.594778     1.756809
 H    -3.929240     2.701805     3.197013
 C     2.419407    -1.088168     0.488493
 C     2.996717    -0.543788     1.638764
 H     2.344430    -0.284667     2.474370
 C     3.235343    -1.477256    -0.576249
 H     2.795201    -1.944971    -1.456131
 C     4.368526    -0.339815     1.710451
 H     4.820739     0.097327     2.601930
 C     4.611067    -1.268671    -0.508559
 H     5.253816    -1.559708    -1.340947
 C     5.172818    -0.691485     0.626813
Cl     6.882371    -0.418674     0.699505
 C     0.402933    -3.749715    -1.209132
 H    -0.521115    -3.910048    -0.631562
 H     0.406407    -4.420564    -2.078699
 H     1.271646    -3.981422    -0.570233
 C     1.337727     0.094783    -2.718567
 H     2.297852     0.455442    -2.322337
 H     1.470009    -0.882488    -3.203276
 H     0.961754     0.818086    -3.454910
