  82
scf done:    -2151.257417
 C    -1.334206    -1.519035     3.043607
 H    -1.996384    -0.913928     3.670382
 H    -1.810778    -2.411785     2.628033
 C     0.060124    -1.531097     3.302918
 H     0.455254    -0.935608     4.131713
 H     0.645507    -2.427253     3.078904
 H    -0.195342    -1.760995     0.782363
Rh    -0.331586    -0.363447     1.523482
 O    -2.118540    -1.158847    -1.276986
 C    -3.697248    -0.389236     0.683021
 C    -2.236799     1.488473    -0.934698
 O     1.929853     0.767629    -0.894811
 C     3.053026     0.718759     1.555418
 C     2.489892    -1.630429    -0.020794
 P     1.720423    -0.078984     0.560583
 P    -2.022819    -0.073930     0.007087
 C    -0.439392     1.285991     2.477053
 O    -0.463790     2.264083     3.079771
 C    -1.096665    -1.901677    -1.781687
 C    -0.210718    -1.342021    -2.700716
 H    -0.317916    -0.285840    -2.954838
 C    -1.009936    -3.257367    -1.421006
 C    -1.978946    -3.828769    -0.434123
 H    -1.837101    -4.911687    -0.318146
 H    -1.847281    -3.354075     0.551286
 H    -3.017740    -3.639895    -0.745899
 C     0.774637    -2.132814    -3.288014
 H     1.463289    -1.695660    -4.014704
 C    -0.009695    -4.027931    -2.019597
 H     0.069936    -5.085154    -1.752291
 C     0.875490    -3.480062    -2.947979
 H     1.640697    -4.108635    -3.408920
 H    -3.629285    -1.396506     1.125996
 H    -3.814332     0.298766     1.538238
 C    -4.872102    -0.299817    -0.280698
 H    -4.657384    -0.925095    -1.162188
 H    -4.971316     0.733222    -0.654161
 C    -6.182081    -0.733238     0.359853
 H    -6.128808    -1.777296     0.707809
 H    -6.428177    -0.108141     1.233261
 H    -7.020682    -0.660706    -0.349337
 H    -1.273045     1.693657    -1.429938
 H    -2.975810     1.287513    -1.728034
 C    -2.652481     2.682974    -0.086099
 H    -1.861725     2.901487     0.649085
 H    -3.553336     2.434455     0.500932
 C    -2.927993     3.919663    -0.927545
 H    -2.041779     4.197744    -1.517713
 H    -3.758055     3.744309    -1.630536
 H    -3.198769     4.780831    -0.297694
 C     1.528939     2.029339    -1.173584
 C     1.038276     2.918547    -0.214318
 H     0.957047     2.609681     0.825769
 C     1.654880     2.431638    -2.519261
 C     2.250927     1.493244    -3.522066
 H     3.318266     1.319017    -3.308134
 H     1.767903     0.507545    -3.483945
 H     2.166335     1.894718    -4.541049
 C     0.652372     4.206030    -0.584115
 H     0.270446     4.888172     0.179099
 C     1.252634     3.723209    -2.861173
 H     1.346355     4.039369    -3.903892
 C     0.750571     4.613035    -1.910541
 H     0.447800     5.619773    -2.206083
 H     3.914318     0.902917     0.891846
 H     2.677335     1.707335     1.865476
 C     3.458172    -0.085785     2.783689
 H     3.885332    -1.053361     2.469402
 H     2.555004    -0.329283     3.365686
 C     4.459668     0.650588     3.659946
 H     5.381455     0.887293     3.104870
 H     4.042102     1.601723     4.026855
 H     4.742715     0.049847     4.537570
 H     2.501183    -2.288538     0.865035
 H     1.751231    -2.073628    -0.706800
 C     3.858312    -1.539312    -0.677885
 H     4.590918    -1.110386     0.026815
 H     3.798584    -0.836331    -1.523717
 C     4.353997    -2.894448    -1.159540
 H     4.447968    -3.606819    -0.324125
 H     3.653618    -3.332688    -1.887137
 H     5.339643    -2.814872    -1.643081
