  98
scf done:    -3157.265464
 C    -1.024247     3.125061     1.870193
 H    -1.712501     3.800036     1.351961
 H    -1.415681     2.728572     2.810569
 C     0.370106     3.283003     1.693199
 H     0.752483     4.071732     1.042364
 H     1.058991     2.993463     2.491413
 H     0.104277     0.789423     1.912309
Rh    -0.299322     1.544233     0.577787
 O    -2.256922    -0.749272     2.118733
 C    -3.709250     1.022532     0.812845
 C    -2.392845    -1.194652    -0.561076
 O     1.178078    -0.776720    -1.291349
 C     2.710950     1.488672    -1.237391
 C     2.586088    -0.298773     1.100865
 P     1.536297     0.473473    -0.214426
 P    -2.097415     0.140748     0.691537
 C    -0.683545     2.518063    -1.024760
 O    -0.854747     3.138564    -1.974604
 C    -1.248793    -1.436642     2.730289
 C    -0.856743    -2.681764     2.235520
 H    -1.346373    -3.072882     1.342850
 C    -0.686547    -0.921158     3.911653
 C    -1.141580     0.386590     4.479986
 H    -0.580920     1.220567     4.029562
 H    -2.205387     0.561086     4.268524
 H    -0.983727     0.419147     5.566748
 C     0.122300    -3.423182     2.891969
 H     0.415151    -4.399966     2.500196
 C     0.300939    -1.682471     4.546226
 H     0.747082    -1.295325     5.466391
 C     0.711940    -2.917331     4.048532
 H     1.478579    -3.490415     4.574910
 H    -3.607366     1.594960     1.750459
 H    -3.673853     1.768197     0.003713
 C    -5.002885     0.260661     0.768212
 C    -6.000729     0.645143    -0.136603
 H    -5.816342     1.483937    -0.812618
 C    -5.265740    -0.820527     1.621362
 H    -4.502937    -1.133472     2.335619
 C    -7.218985    -0.025486    -0.205408
 H    -7.998231     0.272353    -0.909276
 C    -6.476473    -1.505888     1.560969
 H    -6.686554    -2.350650     2.219618
 C    -7.440147    -1.100421     0.645952
 F    -8.600227    -1.752717     0.586264
 H    -1.464684    -1.785440    -0.571332
 H    -3.214109    -1.825865    -0.189910
 C    -2.691578    -0.653072    -1.927865
 C    -4.000565    -0.645042    -2.425386
 H    -4.807979    -1.069337    -1.825661
 C    -1.668601    -0.131965    -2.732078
 H    -0.640185    -0.166176    -2.367997
 C    -4.292097    -0.111548    -3.677970
 H    -5.309229    -0.106052    -4.074047
 C    -1.945841     0.407873    -3.984606
 H    -1.156159     0.818596    -4.616075
 C    -3.258080     0.418491    -4.439652
 F    -3.530352     0.935004    -5.637940
 C     2.024550    -1.602265    -1.990220
 C     2.764282    -1.124241    -3.072998
 H     2.660830    -0.083665    -3.378108
 C     2.049650    -2.965037    -1.651535
 C     1.126546    -3.504604    -0.606977
 H     0.999342    -2.804665     0.226510
 H     0.125200    -3.679287    -1.037084
 H     1.493139    -4.460303    -0.208406
 C     3.617000    -1.977553    -3.769244
 H     4.199622    -1.591689    -4.608914
 C     2.921279    -3.797219    -2.358370
 H     2.970840    -4.854495    -2.084380
 C     3.714527    -3.315163    -3.397208
 H     4.390463    -3.989388    -3.927300
 H     3.551362     0.866595    -1.572143
 H     2.123861     1.747858    -2.131763
 C     3.188452     2.740707    -0.565078
 C     2.604849     3.975308    -0.874427
 H     1.802055     4.019496    -1.614067
 C     4.222652     2.718671     0.379592
 H     4.718966     1.777179     0.626923
 C     3.023798     5.150353    -0.257855
 H     2.572318     6.114544    -0.497964
 C     4.649921     3.883149     1.012381
 H     5.455415     3.871219     1.748620
 C     4.039749     5.087835     0.687401
 F     4.444584     6.205950     1.286232
 H     3.016660     0.581197     1.611248
 H     1.850481    -0.707722     1.809146
 C     3.620256    -1.343411     0.785944
 C     3.506773    -2.601112     1.392163
 H     2.683337    -2.780560     2.086762
 C     4.705425    -1.133060    -0.076257
 H     4.857388    -0.162606    -0.548964
 C     4.405910    -3.627897     1.120646
 H     4.311266    -4.609851     1.587866
 C     5.609754    -2.148919    -0.367175
 H     6.440896    -1.991170    -1.056065
 C     5.441586    -3.392487     0.227595
 F     6.296344    -4.373671    -0.058074
