  82
scf done:    -2151.250489
 C    -3.276594    -1.313039    -2.089295
 H    -4.122066    -1.835455    -1.630863
 H    -3.543852    -0.361407    -2.558282
 C    -2.182889    -2.062921    -2.599261
 H    -2.203169    -3.154910    -2.527857
 H    -1.617555    -1.684579    -3.455508
 H    -1.192481     0.090003    -1.727340
Rh    -1.598605    -1.096052    -0.758453
 O    -2.225598     2.168553     0.001453
 C    -4.068013     0.603994     1.041242
 C    -1.433544     0.846210     2.220417
 O     1.113262    -0.609602     1.029210
 C     1.492043    -2.818956    -0.517202
 C     1.634721    -0.159113    -1.663081
 P     0.652291    -1.184461    -0.496127
 P    -2.289388     0.594385     0.615083
 C    -2.020124    -2.606357     0.337320
 O    -2.234591    -3.540970     0.969197
 C    -1.156342     2.643242    -0.694261
 C    -1.163839     2.611092    -2.091774
 H    -2.025534     2.179517    -2.602520
 C    -0.064964     3.202425    -0.028903
 H    -0.071966     3.247864     1.061581
 C    -0.084409     3.119623    -2.805282
 H    -0.102951     3.080678    -3.898120
 C     1.010177     3.711319    -0.757743
 H     1.855720     4.154452    -0.223521
 C     1.026646     3.674681    -2.155552
 C     2.177258     4.234059    -2.940924
 H     1.896232     5.172565    -3.446458
 H     2.509665     3.532252    -3.720928
 H     3.038750     4.451614    -2.293700
 H    -4.587456     0.576247     0.068629
 H    -4.260330    -0.378793     1.506711
 C    -4.582089     1.746493     1.905655
 H    -4.272520     2.702126     1.452990
 H    -4.102927     1.705737     2.898264
 C    -6.093721     1.713281     2.073230
 H    -6.603868     1.792455     1.099993
 H    -6.425150     0.773063     2.542674
 H    -6.447287     2.543666     2.703305
 H    -0.388406     1.064983     1.952501
 H    -1.852359     1.737955     2.715394
 C    -1.462753    -0.374831     3.128713
 H    -1.111670    -1.247524     2.555920
 H    -2.500725    -0.596847     3.433143
 C    -0.588279    -0.200674     4.360677
 H     0.462297    -0.039148     4.071443
 H    -0.906219     0.665298     4.963403
 H    -0.624933    -1.090173     5.007927
 C     2.375199    -0.284809     1.428309
 C     2.831200     1.027567     1.284105
 H     2.176449     1.765080     0.817385
 C     3.198761    -1.237161     2.030624
 H     2.826667    -2.254428     2.164495
 C     4.110558     1.368633     1.710388
 H     4.458732     2.397494     1.580819
 C     4.477279    -0.880237     2.452960
 H     5.115430    -1.637358     2.917334
 C     4.961230     0.423927     2.298535
 C     6.329529     0.808643     2.782069
 H     6.781824     1.579566     2.140944
 H     7.007616    -0.056589     2.804559
 H     6.288314     1.219134     3.805059
 H     2.571111    -2.689595    -0.330963
 H     1.076665    -3.373415     0.341777
 C     1.244869    -3.589484    -1.808474
 H     1.642093    -3.017075    -2.664739
 H     0.157990    -3.657277    -1.976235
 C     1.865230    -4.977627    -1.791751
 H     2.957495    -4.929226    -1.654519
 H     1.455491    -5.584799    -0.968843
 H     1.670082    -5.515545    -2.731855
 H     1.117186    -0.281060    -2.629088
 H     1.423486     0.883350    -1.367607
 C     3.131373    -0.405539    -1.818532
 H     3.294674    -1.387165    -2.293813
 H     3.621856    -0.458551    -0.834779
 C     3.797931     0.681541    -2.647638
 H     3.331898     0.771246    -3.642335
 H     3.706739     1.660737    -2.151805
 H     4.869382     0.477550    -2.794810
