  90
scf done:    -2904.146461
 C    -0.654276    -4.056910    -1.729338
 H    -1.176258    -4.768078    -1.082985
 H    -1.210340    -3.760423    -2.622310
 C     0.756163    -4.004023    -1.730627
 H     1.328772    -4.677132    -1.086466
 H     1.292521    -3.662348    -2.619287
 H    -0.017366    -1.592556    -2.054451
Rh    -0.007560    -2.298827    -0.630140
 O    -2.418241    -0.145831    -1.457581
 O    -3.202347    -1.825462     0.288323
 O    -1.610629     0.054515     0.973238
 O     2.290007    -0.712679     1.169511
 O     3.046175    -1.137264    -1.236972
 O     1.351188     0.696516    -0.764068
 P     1.679487    -0.872804    -0.353642
 P    -1.830632    -1.062403    -0.229361
 C     0.056101    -3.168598     1.092872
 O     0.098608    -3.648627     2.128499
 C    -2.711960     1.198296    -1.425614
 C    -4.037896     1.620549    -1.436921
 H    -4.841263     0.883237    -1.456729
 C    -1.671333     2.124263    -1.401368
 H    -0.642519     1.763256    -1.401440
 C    -4.313974     2.985941    -1.398967
 H    -5.356765     3.314882    -1.397810
 C    -1.966182     3.482643    -1.350927
 H    -1.142901     4.201121    -1.307590
 C    -3.291063     3.940224    -1.345810
 C    -3.598172     5.409582    -1.316228
 H    -4.615508     5.602069    -0.946457
 H    -3.526437     5.849537    -2.325036
 H    -2.891276     5.955651    -0.674062
 C    -4.493760    -1.541941    -0.089244
 C    -4.934101    -1.915170    -1.359560
 H    -4.238680    -2.407258    -2.041396
 C    -5.356934    -0.915798     0.808429
 H    -4.994834    -0.636779     1.798043
 C    -6.244241    -1.635998    -1.739870
 H    -6.586339    -1.920062    -2.737774
 C    -6.667516    -0.646794     0.417906
 H    -7.342318    -0.151677     1.120094
 C    -7.114500    -0.997386    -0.855487
 H    -8.140923    -0.778364    -1.157764
 C    -2.469610     0.438868     1.971879
 C    -2.674347    -0.409312     3.060747
 H    -2.175044    -1.379425     3.083692
 C    -3.074967     1.693240     1.916487
 H    -2.887012     2.344231     1.062094
 C    -3.523247    -0.007028     4.089204
 H    -3.691904    -0.673039     4.938586
 C    -3.919703     2.084158     2.953483
 H    -4.402058     3.063410     2.908365
 C    -4.153661     1.236837     4.036396
 H    -4.820643     1.547999     4.843382
 C     3.611310    -0.572959     1.526740
 C     4.094461     0.661616     1.952273
 H     3.425744     1.521887     1.984444
 C     4.453745    -1.683175     1.489809
 H     4.058010    -2.643580     1.155370
 C     5.433101     0.781011     2.317403
 H     5.807235     1.756335     2.640353
 C     5.789233    -1.544910     1.855234
 H     6.446371    -2.417752     1.811222
 C     6.306777    -0.311456     2.271815
 C     7.742495    -0.176724     2.689303
 H     8.105695     0.852669     2.557474
 H     8.395689    -0.846784     2.111335
 H     7.870618    -0.435380     3.753823
 C     3.766081    -0.217973    -1.959810
 C     5.017235     0.192031    -1.502332
 H     5.401403    -0.203077    -0.561405
 C     3.249296     0.267521    -3.161512
 H     2.267311    -0.072359    -3.495047
 C     5.746747     1.112617    -2.252366
 H     6.725216     1.438885    -1.892091
 C     3.986103     1.191121    -3.898926
 H     3.578746     1.578770    -4.835619
 C     5.234600     1.620118    -3.446188
 H     5.808992     2.345538    -4.026507
 C     1.663983     1.840741    -0.069153
 C     2.635028     2.704211    -0.573084
 H     3.165508     2.443073    -1.489138
 C     0.957028     2.151787     1.092733
 H     0.188681     1.462925     1.444290
 C     2.915734     3.883214     0.115132
 H     3.681515     4.558791    -0.273219
 C     1.250315     3.332128     1.771551
 H     0.701110     3.574145     2.684430
 C     2.232539     4.198659     1.289779
 H     2.460778     5.122343     1.826301
