  66
scf done:    -1617.668066
 C     0.837717    -3.020447     0.440031
 H     1.695575    -3.353266    -0.153201
 H     0.995033    -3.082349     1.520842
 C    -0.474275    -3.164814    -0.085741
 H    -0.611039    -3.600655    -1.080409
 H    -1.311009    -3.348310     0.594594
 H    -0.503517    -1.034090     1.337895
Rh     0.093757    -1.086375    -0.146483
 C     1.334683     1.279277     2.249834
 C     3.331045    -0.326841     0.987866
 C     2.051566     1.819212    -0.480528
 C    -1.997871     0.638067    -2.345323
 C    -3.405736    -0.791445    -0.269451
 C    -2.018291     1.663606     0.423552
 P    -1.829101     0.115966    -0.577056
 P     1.668905     0.407127     0.654052
 C     0.760502    -1.131905    -1.921683
 O     1.154597    -1.127906    -3.002996
 H     0.466057     1.931303     2.062202
 C     1.059740     0.352578     3.422579
 H     1.937794    -0.264791     3.666986
 H     0.228496    -0.330700     3.191874
 H     2.188350     1.941265     2.471046
 H     0.799715     0.927297     4.324762
 H     3.981310     0.423684     1.471542
 H     3.155983    -1.125708     1.727572
 C     4.001948    -0.914077    -0.245804
 H     4.199093    -0.114386    -0.980834
 H     3.296591    -1.606276    -0.733604
 C     5.299673    -1.638738     0.075568
 H     6.032186    -0.964615     0.548308
 H     5.123932    -2.475008     0.771033
 H     5.764609    -2.052555    -0.832176
 H     2.231913     1.363409    -1.469061
 H     1.100251     2.369822    -0.587252
 C     3.184652     2.770750    -0.121289
 H     4.125643     2.204234    -0.020489
 H     2.997930     3.224648     0.866226
 C     3.368683     3.871848    -1.155609
 H     3.592495     3.450850    -2.148823
 H     2.456422     4.481705    -1.255685
 H     4.194180     4.547987    -0.885535
 H    -1.929650    -0.312178    -2.901494
 C    -3.198903     1.444286    -2.813495
 H    -3.194244     2.464631    -2.404065
 H    -4.153435     0.973718    -2.533256
 H    -1.058851     1.169055    -2.573523
 H    -3.192196     1.537024    -3.910895
 H    -4.267138    -0.172952    -0.575331
 H    -3.374793    -1.660659    -0.948517
 C    -3.573502    -1.265166     1.168466
 H    -3.623043    -0.393359     1.843779
 H    -2.667488    -1.816623     1.464986
 C    -4.808600    -2.130258     1.363535
 H    -5.729710    -1.588403     1.093827
 H    -4.761972    -3.034065     0.735030
 H    -4.908986    -2.457750     2.409587
 H    -1.643161     1.386271     1.422440
 H    -1.272288     2.369530     0.016350
 C    -3.378251     2.338537     0.562138
 H    -4.104136     1.621515     0.979083
 H    -3.772485     2.622684    -0.424677
 C    -3.316169     3.567304     1.457951
 H    -2.958847     3.306264     2.467135
 H    -2.626152     4.324143     1.051112
 H    -4.303974     4.040729     1.565781
