  92
scf done:    -2880.313491
 C    -1.847586     0.391804    -3.317729
 H    -2.395509    -0.439240    -3.772207
 H    -2.465873     1.259164    -3.071419
 C    -0.475940     0.565864    -3.615011
 H     0.016925    -0.138082    -4.292771
 H    -0.036290     1.566537    -3.608227
 H    -0.782964     1.343201    -1.227543
Rh    -0.671710    -0.195833    -1.594306
 O    -3.319947     0.878275     0.259552
 C    -3.552791    -1.708498    -0.189067
 C    -1.754350    -0.713175     1.742233
 O     1.679079    -1.283482     0.453073
 C     2.854702     0.258961    -1.454549
 C     1.394505     1.428898     0.694753
 P     1.305953     0.059493    -0.508551
 P    -2.276425    -0.418704     0.016770
 C    -0.407130    -2.039780    -2.056020
 O    -0.179184    -3.134481    -2.309555
 C    -3.069529     2.170353    -0.089694
 C    -1.991616     2.883395     0.441112
 H    -1.290830     2.394988     1.120282
 C    -3.954301     2.794016    -0.971594
 H    -4.785144     2.213463    -1.376209
 C    -1.805778     4.218921     0.092917
 H    -0.965077     4.789054     0.489939
 C    -3.772806     4.129506    -1.319053
 H    -4.452417     4.637641    -2.005500
 C    -2.696896     4.826253    -0.781462
 F    -2.516258     6.107022    -1.113379
 C    -4.357116    -2.117858     0.882479
 H    -4.199549    -1.689935     1.875371
 C    -3.770124    -2.271981    -1.448135
 H    -3.151379    -1.949886    -2.288229
 C    -5.350540    -3.070095     0.690724
 H    -5.970203    -3.378591     1.537588
 C    -4.765584    -3.228118    -1.633046
 H    -4.919976    -3.659228    -2.625951
 C    -5.570563    -3.645889    -0.568699
 C    -6.622679    -4.698647    -0.755832
 H    -6.271762    -5.673765    -0.378917
 H    -7.541872    -4.450576    -0.204332
 H    -6.881342    -4.827965    -1.816132
 C    -2.139066     0.113939     2.798710
 H    -2.819055     0.947239     2.610523
 C    -0.893617    -1.788400     1.998515
 H    -0.564056    -2.430550     1.178669
 C    -1.649712    -0.116621     4.084871
 H    -1.950552     0.547176     4.900412
 C    -0.417840    -2.016084     3.282966
 H     0.265337    -2.851260     3.460906
 C    -0.778650    -1.177433     4.349389
 C    -0.241523    -1.425286     5.728393
 H     0.858955    -1.469463     5.725581
 H    -0.548917    -0.637403     6.430097
 H    -0.599668    -2.388602     6.125901
 C     2.944154    -1.648037     0.815466
 C     3.505706    -1.200745     2.012963
 H     2.932931    -0.535576     2.659127
 C     3.669440    -2.503324    -0.018125
 H     3.212586    -2.844061    -0.948743
 C     4.794007    -1.595181     2.368768
 H     5.255334    -1.257438     3.298573
 C     4.956508    -2.897201     0.330629
 H     5.542976    -3.558289    -0.309745
 C     5.506037    -2.433140     1.520385
 F     6.742558    -2.804485     1.856396
 C     2.896456    -0.217144    -2.767070
 H     1.976374    -0.594570    -3.219332
 C     4.034200     0.753326    -0.877997
 H     4.026381     1.125822     0.148576
 C     4.089999    -0.211559    -3.485059
 H     4.104020    -0.591051    -4.510373
 C     5.220361     0.757943    -1.599966
 H     6.132427     1.137919    -1.131272
 C     5.271249     0.273448    -2.915054
 C     6.557081     0.296954    -3.686702
 H     7.390951    -0.094307    -3.084241
 H     6.488066    -0.299482    -4.606971
 H     6.822831     1.327204    -3.975368
 C     1.031754     1.236332     2.030243
 H     0.786713     0.235435     2.389397
 C     1.672996     2.728641     0.252718
 H     1.944516     2.903537    -0.791655
 C     0.955609     2.319758     2.903609
 H     0.660913     2.144661     3.941851
 C     1.601525     3.802556     1.132414
 H     1.830632     4.808578     0.769048
 C     1.233440     3.620929     2.473082
 C     1.105847     4.793496     3.400068
 H     1.912196     5.524614     3.240098
 H     0.151594     5.321172     3.233325
 H     1.128500     4.480609     4.453386
