 102
scf done:    -3061.159593
 C    -1.068187     1.471005    -3.239111
 H    -1.758299     0.852856    -3.820432
 H    -1.488938     2.432306    -2.932883
 C     0.328161     1.341834    -3.434923
 H     0.699631     0.626013    -4.175212
 H     0.983820     2.204100    -3.286312
 H    -0.020368     1.870369    -0.965311
Rh    -0.234354     0.413620    -1.552386
 O    -2.095824     1.820312     0.916099
 C    -3.656584     0.621507    -0.817385
 C    -2.241353    -0.842171     1.132776
 O     1.509454    -0.854695     1.123425
 C     2.991303    -0.979919    -1.147503
 C     2.600143     1.377009     0.337440
 P     1.651887    -0.024166    -0.340267
 P    -1.988963     0.491245    -0.088086
 C    -0.457193    -1.317484    -2.333809
 O    -0.571543    -2.338019    -2.848287
 C    -1.056685     2.609468     1.324353
 C    -0.146110     2.152554     2.272668
 H    -0.209787     1.121314     2.621430
 C    -0.988290     3.913378     0.808969
 C    -1.967905     4.353304    -0.233871
 H    -1.759460     5.379273    -0.566330
 H    -1.929908     3.686498    -1.109488
 H    -3.001761     4.311624     0.143039
 C     0.839232     3.012112     2.752289
 H     1.555228     2.652558     3.493387
 C     0.012925     4.752199     1.303333
 H     0.085196     5.771200     0.913191
 C     0.917885     4.315105     2.270409
 H     1.697658     4.989461     2.630958
 C    -3.953946    -0.092849    -1.985941
 H    -3.172245    -0.679660    -2.474148
 C    -4.665352     1.381701    -0.223271
 H    -4.447098     1.944665     0.686028
 C    -5.224798    -0.057755    -2.537105
 H    -5.466744    -0.611060    -3.446299
 C    -5.943363     1.438620    -0.776925
 H    -6.705871     2.049116    -0.292518
 C    -6.231945     0.712525    -1.938547
 O    -7.433295     0.698456    -2.547580
 C    -8.478486     1.450323    -1.998507
 H    -8.240872     2.528628    -1.974221
 H    -9.351650     1.294735    -2.644768
 H    -8.729255     1.119909    -0.974968
 C    -2.551152    -0.574334     2.472659
 H    -2.626744     0.461065     2.811098
 C    -2.171935    -2.172138     0.714118
 H    -1.917014    -2.409580    -0.321135
 C    -2.760979    -1.611636     3.369750
 H    -2.985885    -1.418074     4.420391
 C    -2.413603    -3.219784     1.596348
 H    -2.337890    -4.244676     1.236413
 C    -2.691522    -2.943062     2.939564
 O    -2.894373    -3.885976     3.880969
 C    -2.917634    -5.231437     3.491608
 H    -1.953845    -5.548759     3.059013
 H    -3.113228    -5.817795     4.398485
 H    -3.718685    -5.430189     2.757767
 C     1.167849    -2.156388     1.308307
 C     1.071165    -3.088434     0.273087
 H     1.245155    -2.784952    -0.757830
 C     0.946706    -2.542544     2.644886
 C     1.002676    -1.521351     3.737581
 H     0.928348    -1.996607     4.724963
 H     1.931320    -0.932396     3.695940
 H     0.167590    -0.809793     3.641115
 C     0.783639    -4.421632     0.561634
 H     0.721943    -5.141920    -0.257495
 C     0.669196    -3.884635     2.903069
 H     0.501175    -4.190754     3.939435
 C     0.594670    -4.828542     1.877906
 H     0.392764    -5.877135     2.109413
 C     4.003213    -1.614877    -0.408671
 H     3.988968    -1.576949     0.682550
 C     3.029044    -1.063554    -2.537631
 H     2.240574    -0.576458    -3.115859
 C     5.013261    -2.311417    -1.046942
 H     5.798381    -2.819861    -0.484306
 C     4.048266    -1.752945    -3.195912
 H     4.046397    -1.794528    -4.285172
 C     5.047746    -2.384345    -2.449453
 O     6.068774    -3.081682    -2.980621
 C     6.157318    -3.194858    -4.373594
 H     6.266000    -2.209115    -4.859258
 H     7.051549    -3.794829    -4.584420
 H     5.276043    -3.705222    -4.800553
 C     2.591267     2.598264    -0.347423
 H     1.944368     2.715627    -1.219182
 C     3.407615     1.251490     1.469291
 H     3.412460     0.313978     2.027391
 C     3.368006     3.660270     0.084986
 H     3.354949     4.620726    -0.432844
 C     4.186154     2.315010     1.920597
 H     4.792920     2.187480     2.817397
 C     4.166675     3.531348     1.228244
 O     4.860542     4.626726     1.597138
 C     5.675953     4.558741     2.732590
 H     6.469055     3.797889     2.624651
 H     6.144119     5.544974     2.844237
 H     5.093855     4.335819     3.644563
