  92
scf done:    -2728.983732
 C    -2.106381    -1.707830     2.722735
 H    -2.969965    -1.201429     3.164184
 H    -2.335633    -2.677973     2.274027
 C    -0.811248    -1.468736     3.244830
 H    -0.691647    -0.776896     4.084255
 H    -0.051397    -2.252980     3.195784
 H    -0.515464    -1.848751     0.755333
Rh    -1.008990    -0.460295     1.339631
 O    -2.628387    -1.767046    -1.327600
 O    -3.735599     0.277188    -0.568539
 O    -1.580752     0.539262    -1.729592
 O     0.976885     1.725551    -0.035757
 O     2.306065     0.309309     1.605995
 O     1.684535    -0.693315    -0.553970
 P     1.006314     0.187667     0.611346
 P    -2.232721    -0.347602    -0.540772
 C    -1.534322     1.234659     2.096422
 O    -1.810538     2.252343     2.540810
 C    -1.702752    -2.754200    -1.523309
 C    -1.808710    -3.941475    -0.799540
 H    -2.618937    -4.048166    -0.076502
 C    -0.669847    -2.583661    -2.446411
 H    -0.588496    -1.641886    -2.989855
 C    -0.884279    -4.963667    -0.997370
 H    -0.938541    -5.898454    -0.436842
 C     0.251498    -3.604617    -2.653416
 H     1.070966    -3.494316    -3.365430
 C     0.136464    -4.778749    -1.920728
 F     1.046012    -5.742250    -2.089680
 C    -4.771503    -0.225291     0.270034
 H    -5.671954    -0.276495    -0.362872
 H    -4.536360    -1.253558     0.591686
 C    -5.005090     0.672444     1.467124
 H    -5.869610     0.269794     2.024181
 H    -4.140441     0.592814     2.145637
 C    -5.244479     2.132194     1.109952
 H    -6.122697     2.206216     0.443819
 H    -4.386522     2.495153     0.520415
 C    -5.437965     3.017153     2.330085
 H    -6.296488     2.686557     2.937001
 H    -4.545738     2.996744     2.975469
 H    -5.616286     4.064870     2.044614
 C    -2.291794     0.976206    -2.889242
 H    -1.578862     0.892055    -3.726344
 H    -3.136888     0.299618    -3.091014
 C    -2.758736     2.407160    -2.721444
 H    -3.266529     2.711784    -3.653934
 H    -3.522407     2.428373    -1.927043
 C    -1.635681     3.379711    -2.387762
 H    -0.899852     3.388104    -3.211791
 H    -1.092531     3.003606    -1.505513
 C    -2.131721     4.791718    -2.125717
 H    -2.659716     5.206065    -3.000149
 H    -2.834818     4.812738    -1.277176
 H    -1.301228     5.472170    -1.884540
 C     1.938878     2.171426    -0.900235
 C     1.811223     1.897428    -2.263431
 H     0.949269     1.318811    -2.598097
 C     3.027636     2.903093    -0.426571
 H     3.110299     3.106836     0.641820
 C     2.776554     2.353515    -3.155683
 H     2.703610     2.154977    -4.226530
 C     3.995468     3.363268    -1.316763
 H     4.856780     3.939656    -0.974482
 C     3.858472     3.080282    -2.670323
 F     4.784923     3.516723    -3.524160
 C     2.171471     0.942525     2.870136
 H     1.942846     2.014455     2.722082
 H     1.323999     0.492767     3.414956
 C     3.464411     0.774977     3.634268
 H     3.321988     1.200067     4.643026
 H     3.650499    -0.304027     3.774789
 C     4.665293     1.422790     2.958741
 H     4.474177     2.505588     2.847592
 H     4.753038     1.024258     1.934652
 C     5.965909     1.206126     3.713845
 H     5.912878     1.619087     4.734193
 H     6.197899     0.132925     3.805950
 H     6.815086     1.686230     3.204661
 C     3.079965    -0.936601    -0.751712
 H     3.182730    -1.120712    -1.832527
 H     3.662674    -0.036730    -0.504751
 C     3.554146    -2.131366     0.050045
 H     4.625637    -2.279544    -0.174763
 H     3.492965    -1.880413     1.121638
 C     2.773812    -3.405078    -0.235212
 H     2.878254    -3.665338    -1.302522
 H     1.701575    -3.202701    -0.081719
 C     3.199240    -4.587170     0.617900
 H     4.266910    -4.824524     0.480702
 H     3.041389    -4.384080     1.689565
 H     2.622512    -5.487064     0.356669
