  90
scf done:    -2904.159176
 C     0.025857    -3.619306    -1.905062
 H     0.722145    -3.778617    -2.733160
 H     0.247424    -4.196483    -1.004366
 C    -1.302171    -3.215811    -2.157301
 H    -1.642615    -3.060786    -3.185001
 H    -2.094077    -3.473068    -1.449373
 H    -0.608138    -2.055922    -0.006033
Rh    -0.176303    -1.508064    -1.427890
 O     1.967641    -1.253497     1.201822
 O     3.104661    -1.270415    -1.043421
 O     1.826426     0.807090    -0.263089
 O    -1.784631     1.366610    -1.888649
 O    -3.263698    -0.246482    -0.729660
 O    -1.287082     0.745695     0.574045
 P    -1.641166     0.082992    -0.889842
 P     1.671086    -0.829402    -0.373195
 C     0.329300    -0.886764    -3.190731
 O     0.639099    -0.508043    -4.221924
 C     1.085751    -1.939895     2.001312
 C     0.133836    -1.241097     2.738131
 H     0.056911    -0.159067     2.627342
 C     1.207787    -3.334291     2.081050
 C     2.253829    -4.043576     1.278398
 H     2.136368    -3.843694     0.202191
 H     3.263744    -3.698327     1.550763
 H     2.204318    -5.129194     1.436405
 C    -0.725146    -1.936130     3.586825
 H    -1.471995    -1.388580     4.166309
 C     0.327708    -4.007395     2.933175
 H     0.400983    -5.095483     3.010291
 C    -0.629256    -3.322846     3.682089
 H    -1.297925    -3.876078     4.345758
 C     4.333490    -0.679924    -0.861891
 C     4.945949    -0.637714     0.390229
 H     4.436980    -1.072055     1.250879
 C     4.957534    -0.136103    -1.982830
 H     4.450641    -0.196513    -2.947785
 C     6.179920    -0.005285     0.518954
 H     6.652789     0.049224     1.502101
 C     6.197302     0.482408    -1.842823
 H     6.686467     0.914113    -2.719311
 C     6.807517     0.558659    -0.591266
 H     7.774464     1.054267    -0.481397
 C     2.691165     1.604676     0.447141
 C     3.483882     2.496826    -0.274088
 H     3.426060     2.488816    -1.363268
 C     2.730299     1.588164     1.841787
 H     2.108219     0.886663     2.394640
 C     4.343608     3.355088     0.403423
 H     4.973594     4.042569    -0.165656
 C     3.595220     2.454558     2.508393
 H     3.631631     2.435128     3.600288
 C     4.406927     3.335645     1.796944
 H     5.085177     4.008326     2.326173
 C    -2.434636     2.551044    -1.594159
 C    -3.819527     2.626447    -1.705375
 H    -4.371343     1.739753    -2.017992
 C    -1.653415     3.649745    -1.212096
 C    -0.160428     3.547502    -1.167425
 H     0.279473     4.416420    -0.660324
 H     0.175446     2.636516    -0.654350
 H     0.255440     3.497255    -2.187226
 C    -4.465505     3.817849    -1.387062
 H    -5.553341     3.882680    -1.462604
 C    -2.331639     4.828833    -0.889321
 H    -1.749043     5.695420    -0.566061
 C    -3.720211     4.917120    -0.966108
 H    -4.220461     5.851197    -0.700930
 C    -3.733112    -1.431975    -0.225954
 C    -4.737031    -2.086049    -0.939349
 H    -5.097726    -1.641917    -1.868781
 C    -3.238506    -1.968333     0.962793
 H    -2.454727    -1.450046     1.516392
 C    -5.241808    -3.292418    -0.461871
 H    -6.025999    -3.807057    -1.022124
 C    -3.740665    -3.184249     1.421651
 H    -3.333940    -3.609963     2.341676
 C    -4.740725    -3.850196     0.715308
 H    -5.130537    -4.802798     1.080361
 C    -1.847402     1.718520     1.364446
 C    -3.223211     1.862070     1.543420
 H    -3.913989     1.210695     1.010681
 C    -0.950647     2.545857     2.042424
 H     0.120084     2.411976     1.879371
 C    -3.692464     2.865496     2.388262
 H    -4.770411     2.988369     2.516434
 C    -1.435498     3.537337     2.890288
 H    -0.729497     4.186747     3.413416
 C    -2.808530     3.705823     3.063227
 H    -3.189188     4.489065     3.722128
