 106
scf done:    -2465.506904
 C    -0.829972    -2.843866    -2.665742
 H    -1.301528    -3.759087    -2.294404
 H    -1.464160    -2.257447    -3.337153
 C     0.582355    -2.796891    -2.823387
 H     1.184730    -3.675735    -2.572727
 H     1.012112    -2.174361    -3.612979
 H    -0.122938    -0.432961    -2.150054
Rh     0.004658    -1.633937    -1.098926
 O    -1.293526     1.076383     0.170576
 C    -3.247095    -0.347078    -1.219646
 C    -2.390297    -1.055365     1.459589
 O     1.584264    -0.408597     1.454043
 C     3.453407    -1.045660    -0.472250
 C     1.849531     1.325898    -0.717739
 P     1.739175    -0.436258    -0.224938
 P    -1.745408    -0.517859    -0.171455
 C     0.250100    -3.071073     0.130387
 O     0.448146    -3.923336     0.873415
 C    -2.109041     2.166690     0.245136
 C    -2.713648     2.495878     1.462517
 H    -2.522888     1.862762     2.330512
 C    -2.278402     2.977702    -0.889216
 C    -1.579450     2.678925    -2.183034
 H    -0.902106     3.504072    -2.455891
 H    -0.982756     1.759970    -2.119964
 H    -2.301106     2.568793    -3.007590
 C    -3.543295     3.608061     1.553853
 H    -4.019887     3.854783     2.505364
 C    -3.121100     4.089705    -0.768941
 H    -3.274425     4.726249    -1.645225
 C    -3.758797     4.403103     0.428159
 H    -4.412814     5.275899     0.486661
 H    -3.383919    -1.361441    -1.633206
 H    -2.920059     0.264150    -2.074814
 C    -4.547856     0.163740    -0.613413
 H    -4.869624    -0.523535     0.186674
 H    -4.394868     1.141561    -0.130274
 C    -5.694223     0.301309    -1.620550
 H    -5.826677    -0.678327    -2.118078
 C    -6.989006     0.639749    -0.890326
 H    -7.238825    -0.123080    -0.136301
 H    -7.837637     0.715124    -1.587712
 H    -6.897974     1.607138    -0.368610
 C    -5.395390     1.341367    -2.695540
 H    -6.243394     1.447433    -3.389523
 H    -4.512987     1.076780    -3.297464
 H    -5.207170     2.327305    -2.238240
 H    -3.133675    -0.330839     1.829545
 H    -1.512738    -1.004488     2.123836
 C    -2.975123    -2.461262     1.424484
 H    -3.910718    -2.451097     0.839300
 H    -2.291048    -3.136232     0.881162
 C    -3.264146    -3.064301     2.802961
 H    -3.913058    -2.353833     3.349799
 C    -4.027179    -4.375103     2.649876
 H    -4.968129    -4.233495     2.095244
 H    -4.275340    -4.812356     3.629292
 H    -3.422944    -5.114964     2.098945
 C    -1.991808    -3.271162     3.618055
 H    -2.220615    -3.714725     4.599296
 H    -1.454111    -2.329090     3.802541
 H    -1.298643    -3.948775     3.093486
 C     2.425694     0.147412     2.376530
 C     3.577387    -0.541063     2.767657
 H     3.787210    -1.511607     2.316216
 C     2.076579     1.366986     2.982792
 C     0.824489     2.095095     2.599533
 H     1.041483     2.923911     1.904920
 H     0.114237     1.431580     2.092317
 H     0.340815     2.537167     3.482832
 C     4.427052    -0.001108     3.728116
 H     5.327775    -0.544545     4.022915
 C     2.945371     1.883242     3.951072
 H     2.686957     2.832003     4.430260
 C     4.115192     1.222748     4.317581
 H     4.773369     1.654679     5.074720
 H     3.479087    -2.068561    -0.060451
 H     4.154606    -0.432317     0.114281
 C     3.820526    -1.069529    -1.950534
 H     3.022954    -1.597160    -2.498272
 H     3.836085    -0.039259    -2.351117
 C     5.165667    -1.731138    -2.258385
 H     5.128761    -2.757489    -1.846605
 C     5.363938    -1.839027    -3.765761
 H     4.538492    -2.391926    -4.240324
 H     6.304232    -2.355886    -4.012678
 H     5.403430    -0.838226    -4.227778
 C     6.334262    -1.002735    -1.603812
 H     7.292324    -1.486251    -1.849964
 H     6.249091    -0.980324    -0.506885
 H     6.389086     0.041579    -1.956016
 H     0.913109     1.767276    -0.342313
 H     1.738018     1.293798    -1.813751
 C     3.070283     2.135172    -0.302818
 H     3.281011     1.985726     0.767083
 H     3.964498     1.771028    -0.839712
 C     2.927479     3.638800    -0.557877
 H     2.025474     3.978609    -0.013819
 C     4.126859     4.385320     0.013482
 H     4.252216     4.177212     1.087643
 H     4.022009     5.474182    -0.112135
 H     5.056681     4.079701    -0.494989
 C     2.727830     3.961953    -2.034103
 H     2.640544     5.047742    -2.194411
 H     1.818297     3.494191    -2.440361
 H     3.583827     3.605371    -2.632002
