  96
scf done:    -3181.115797
 C    -1.574810     3.991112     0.488750
 H    -2.152770     4.443307    -0.321489
 H    -2.130986     3.849078     1.418116
 C    -0.173278     4.100002     0.510091
 H     0.348779     4.642167    -0.283255
 H     0.369093     4.045950     1.456931
 H    -0.727153     1.762259     1.415185
Rh    -0.715238     2.085910    -0.137350
 O    -2.658845    -0.498334     0.940732
 O    -3.917403     1.502260     0.164242
 O    -2.929864    -0.035521    -1.534679
 O     1.708624     0.204578    -1.452508
 O     2.589011     1.977767     0.148505
 O     1.447884    -0.116183     1.077834
 P     1.259573     1.022736    -0.080997
 P    -2.497569     0.742938    -0.135113
 C    -0.742778     2.527926    -2.015395
 O    -0.769234     2.801118    -3.124053
 C    -1.657307    -1.099611     1.659644
 C    -1.269145    -0.562924     2.886973
 H    -1.739835     0.354851     3.242125
 C    -1.082791    -2.279316     1.189827
 H    -1.424754    -2.698585     0.242283
 C    -0.287597    -1.198590     3.641064
 H     0.046597    -0.796747     4.598855
 C    -0.097930    -2.914947     1.940270
 H     0.378863    -3.832471     1.591648
 C     0.292475    -2.363032     3.153310
 F     1.247525    -2.960525     3.863021
 C    -5.140926     0.862406     0.202162
 C    -5.817490     0.622274    -0.992387
 H    -5.346719     0.919024    -1.929940
 C    -5.688755     0.515802     1.445066
 C    -4.958063     0.792172     2.723386
 H    -4.257926    -0.025440     2.955402
 H    -4.366974     1.716002     2.650228
 H    -5.660039     0.885968     3.563532
 C    -7.062168    -0.000056    -0.966862
 H    -7.590466    -0.194718    -1.902808
 C    -6.944857    -0.101512     1.439462
 H    -7.396346    -0.376375     2.396748
 C    -7.626051    -0.366798     0.253661
 H    -8.603844    -0.852741     0.284538
 C    -2.812489    -1.377877    -1.794779
 C    -3.677269    -2.288373    -1.188257
 H    -4.438612    -1.918268    -0.500656
 C    -1.828436    -1.788642    -2.707236
 C    -0.956587    -0.780646    -3.389758
 H    -1.564713    -0.029359    -3.916121
 H    -0.327768    -0.232919    -2.672855
 H    -0.291750    -1.266018    -4.116469
 C    -3.541019    -3.648473    -1.456333
 H    -4.211759    -4.363481    -0.974803
 C    -1.713517    -3.161234    -2.953967
 H    -0.947225    -3.503431    -3.654825
 C    -2.549499    -4.087908    -2.331829
 H    -2.433926    -5.153434    -2.542907
 C     2.274139    -1.042969    -1.549858
 C     1.482864    -2.172648    -1.345335
 H     0.434328    -2.052664    -1.076296
 C     3.616359    -1.172427    -1.903895
 H     4.220938    -0.280049    -2.068398
 C     2.037010    -3.442848    -1.473368
 H     1.435906    -4.340670    -1.318349
 C     4.174019    -2.441848    -2.033200
 H     5.223169    -2.572334    -2.303565
 C     3.380364    -3.561650    -1.811966
 F     3.916621    -4.775425    -1.934271
 C     3.821968     1.880254    -0.458282
 C     4.884888     1.314140     0.241943
 H     4.718045     0.935267     1.250398
 C     3.984706     2.408133    -1.748718
 C     2.835517     3.035627    -2.474350
 H     2.168996     2.264986    -2.892508
 H     2.227794     3.651104    -1.794727
 H     3.187486     3.665177    -3.302513
 C     6.137796     1.229487    -0.359423
 H     6.968048     0.777565     0.187626
 C     5.254927     2.307647    -2.327191
 H     5.404335     2.707919    -3.333600
 C     6.322296     1.718361    -1.651312
 H     7.301379     1.653301    -2.131191
 C     2.515894    -0.375005     1.906146
 C     3.283444    -1.513023     1.673149
 H     3.043897    -2.146772     0.819911
 C     2.753720     0.465797     3.003978
 C     1.910494     1.676939     3.253765
 H     0.847919     1.465918     3.065103
 H     2.026854     2.029484     4.287621
 H     2.194664     2.497774     2.576217
 C     4.336360    -1.821642     2.528435
 H     4.937626    -2.714361     2.343756
 C     3.821320     0.130313     3.844685
 H     4.028586     0.771809     4.705454
 C     4.612330    -0.993312     3.614129
 H     5.436437    -1.227581     4.291463
