  96
scf done:    -3180.969513
 C    -1.528214    -0.674602    -3.549201
 H    -2.133808    -1.563575    -3.750621
 H    -2.055914     0.272338    -3.691426
 C    -0.126272    -0.734476    -3.730310
 H     0.328140    -1.672492    -4.064466
 H     0.427596     0.161904    -4.021039
 H    -0.528138     0.865352    -1.812414
Rh    -0.567159    -0.707286    -1.608623
 O    -3.217800     1.163356    -0.583052
 C    -3.682301    -1.381485    -0.075104
 C    -1.943678     0.143804     1.546046
 O     1.473559    -1.135518     0.961548
 C     2.967317    -0.561104    -1.244959
 C     1.527313     1.468266     0.132624
 P     1.349205    -0.240478    -0.474969
 P    -2.302939    -0.199937    -0.210095
 C    -0.501762    -2.608961    -1.363834
 O    -0.401655    -3.738099    -1.189819
 C    -2.786634     2.238408    -1.298784
 C    -1.687957     3.003673    -0.899003
 H    -1.109281     2.715499    -0.020173
 C    -3.511381     2.599324    -2.436586
 H    -4.361762     1.982452    -2.732227
 C    -1.324818     4.133417    -1.628376
 H    -0.470822     4.742549    -1.329244
 C    -3.150918     3.726929    -3.168508
 H    -3.703840     4.028539    -4.059941
 C    -2.059739     4.481603    -2.753580
 F    -1.712000     5.564952    -3.452716
 C    -3.901415    -2.313598    -1.099479
 H    -3.218240    -2.334960    -1.951164
 C    -4.564497    -1.361903     1.008551
 H    -4.409088    -0.648797     1.821670
 C    -4.965573    -3.198322    -1.042108
 H    -5.142012    -3.930643    -1.831933
 C    -5.639408    -2.244357     1.079710
 H    -6.305842    -2.204524     1.941556
 C    -5.845498    -3.171527     0.049593
 O    -6.848304    -4.067494     0.026920
 C    -7.761439    -4.092186     1.088606
 H    -8.303466    -3.135170     1.186202
 H    -8.483423    -4.887231     0.863555
 H    -7.267573    -4.320354     2.049485
 C    -2.329561     1.328031     2.187558
 H    -2.926916     2.063222     1.644361
 C    -1.201647    -0.797220     2.263410
 H    -0.874820    -1.718149     1.775948
 C    -1.947429     1.578810     3.498740
 H    -2.229747     2.503410     4.006290
 C    -0.818781    -0.561853     3.581051
 H    -0.221594    -1.310663     4.101223
 C    -1.175961     0.643033     4.202221
 O    -0.817679     0.983522     5.455596
 C    -0.014248     0.100338     6.189249
 H     0.951496    -0.088586     5.687505
 H     0.174979     0.578569     7.158525
 H    -0.517426    -0.867163     6.361363
 C     2.644285    -1.416441     1.602112
 C     3.125247    -0.587468     2.618504
 H     2.570753     0.312529     2.883941
 C     3.351073    -2.570756     1.253533
 H     2.960024    -3.206073     0.457054
 C     4.312326    -0.905790     3.275845
 H     4.709688    -0.271640     4.070542
 C     4.537481    -2.891200     1.904102
 H     5.108012    -3.783810     1.641813
 C     5.006627    -2.050887     2.907368
 F     6.145844    -2.352894     3.532250
 C     4.165441    -0.007882    -0.757393
 H     4.139355     0.711818     0.063776
 C     3.037551    -1.479882    -2.293080
 H     2.108142    -1.903050    -2.681365
 C     5.384976    -0.370564    -1.300118
 H     6.321394     0.048512    -0.927717
 C     4.258901    -1.857177    -2.848024
 H     4.274357    -2.575348    -3.667880
 C     5.443663    -1.302503    -2.349294
 O     6.670844    -1.596075    -2.810711
 C     6.800793    -2.519187    -3.857030
 H     6.284901    -2.177395    -4.771253
 H     7.874158    -2.606972    -4.066555
 H     6.408704    -3.512705    -3.577560
 C     2.016218     2.471262    -0.719776
 H     2.407189     2.206477    -1.705596
 C     1.015882     1.842423     1.375010
 H     0.605704     1.083310     2.042498
 C     1.997953     3.800919    -0.333540
 H     2.374853     4.587877    -0.989664
 C     0.986053     3.179002     1.774452
 H     0.563760     3.427265     2.748228
 C     1.471642     4.169582     0.914405
 O     1.458282     5.488027     1.186560
 C     0.890596     5.920142     2.392341
 H     1.433566     5.522136     3.267529
 H     0.960819     7.015024     2.398592
 H    -0.171492     5.628506     2.470776
