  92
scf done:    -3600.866246
 C     1.994766    -3.983526     0.228180
 H     2.479223    -4.276100    -0.708232
 H     2.687992    -3.794830     1.052449
 C     0.667757    -4.392991     0.493162
 H     0.132785    -5.006516    -0.238262
 H     0.331936    -4.525136     1.524734
 H     0.938173    -2.071936     1.526719
Rh     0.687963    -2.282660    -0.030803
 O     1.809818     0.612513     1.136074
 C     3.850893    -0.959009     0.309277
 C     2.256515     0.538164    -1.549423
 O    -1.393032     0.192394    -0.295015
 C    -2.885972    -2.104841    -0.204394
 C    -1.738577    -0.943502     2.161672
 P    -1.340175    -1.357853     0.427990
 P     2.121452    -0.530973    -0.076133
 C     0.457333    -2.543749    -1.915436
 O     0.344254    -2.685689    -3.047608
 C     1.962198     1.959411     0.969058
 C     3.144053     2.594726     1.350747
 H     3.966821     2.001826     1.752894
 C     0.903575     2.702531     0.441963
 H    -0.005095     2.179707     0.140607
 C     3.270455     3.973456     1.201136
 H     4.189864     4.483145     1.493499
 C     1.027792     4.078410     0.287386
 H     0.209271     4.666403    -0.130627
 C     2.213444     4.707712     0.666302
Cl     2.374688     6.423150     0.469475
 C     4.355354    -0.815204     1.602995
 H     3.734401    -0.360912     2.377842
 C     4.632891    -1.579413    -0.673343
 H     4.226786    -1.713272    -1.680932
 C     5.643198    -1.266002     1.893595
 H     6.042058    -1.151868     2.904679
 C     5.923497    -2.032085    -0.394960
 C     6.757972    -2.695320    -1.451881
 H     6.959290    -3.747346    -1.193426
 H     6.256661    -2.680118    -2.429482
 H     7.733863    -2.197127    -1.561998
 C     6.420009    -1.862285     0.905934
 H     7.428525    -2.211115     1.145315
 C     3.411170     1.272744    -1.852928
 H     4.315216     1.150291    -1.253212
 C     1.104218     0.715254    -2.318284
 H     0.199411     0.166251    -2.047088
 C     3.393582     2.165275    -2.918657
 H     4.289574     2.742511    -3.158849
 C     1.072056     1.615765    -3.388679
 C    -0.190003     1.796829    -4.180540
 H    -0.530814     0.838860    -4.603954
 H    -1.004038     2.175427    -3.541590
 H    -0.051723     2.505173    -5.009127
 C     2.234777     2.335304    -3.677455
 H     2.233394     3.044993    -4.509483
 C    -2.505798     0.959793    -0.445830
 C    -2.944598     1.801289     0.579665
 H    -2.391460     1.835715     1.519234
 C    -3.203133     0.911489    -1.656217
 H    -2.846866     0.245819    -2.444304
 C    -4.099404     2.560635     0.408178
 H    -4.460464     3.210063     1.207250
 C    -4.353418     1.672035    -1.832974
 H    -4.912321     1.629269    -2.769137
 C    -4.804809     2.483120    -0.791844
Cl    -6.267454     3.392794    -0.990589
 C    -2.794010    -3.248581    -1.005675
 H    -1.816770    -3.709560    -1.163763
 C    -4.144236    -1.529500     0.021558
 H    -4.236012    -0.649972     0.662331
 C    -3.941194    -3.788828    -1.579912
 H    -3.868382    -4.684858    -2.200655
 C    -5.302037    -2.048345    -0.565984
 C    -6.622796    -1.370567    -0.343685
 H    -6.860047    -1.301522     0.729516
 H    -6.604785    -0.339739    -0.733521
 H    -7.443388    -1.907763    -0.839075
 C    -5.180890    -3.187251    -1.369645
 H    -6.075027    -3.611080    -1.835405
 C    -2.759648    -1.557281     2.890102
 H    -3.402051    -2.305649     2.422598
 C    -0.903193    -0.011792     2.794702
 H    -0.066506     0.418110     2.238722
 C    -2.953630    -1.211071     4.228727
 H    -3.752314    -1.690569     4.800014
 C    -1.097317     0.352212     4.126573
 C    -0.200129     1.359571     4.785862
 H     0.340226     0.912884     5.635698
 H     0.544853     1.752762     4.080160
 H    -0.776706     2.210629     5.181740
 C    -2.141824    -0.259954     4.836294
 H    -2.309717     0.006667     5.883786
