  84
scf done:    -4861.844945
 C     0.586881    -4.530677    -1.283384
 H     1.303994    -4.748540    -2.079354
 H     0.895195    -4.865630    -0.289950
 C    -0.782023    -4.380779    -1.582436
 H    -1.131097    -4.487573    -2.613181
 H    -1.538244    -4.591078    -0.822086
 H    -0.319308    -2.698116     0.279189
Rh     0.076433    -2.414053    -1.235574
 O     2.134182    -1.452385     1.276051
 O     3.335916    -1.887193    -0.850426
 O     1.886183     0.244344    -0.625912
 O    -2.042075    -0.032749    -2.235046
 O    -3.091083    -1.655063    -0.560052
 O    -1.426404     0.056822     0.264472
 P    -1.627929    -1.011948    -0.974043
 P     1.855439    -1.392077    -0.358942
 C     0.481956    -2.084503    -3.095694
 O     0.705889    -1.865081    -4.192769
 C     1.132421    -1.331876     2.208704
 C     0.703329    -2.475596     2.881031
 H     1.147992    -3.438790     2.626367
 C     0.575519    -0.087488     2.500490
 H     0.900162     0.797689     1.952062
 C    -0.281500    -2.375847     3.860065
 H    -0.635387    -3.253082     4.404350
 C    -0.411821     0.017141     3.475853
 H    -0.873670     0.976976     3.712524
 C    -0.824286    -1.128224     4.143633
 F    -1.779919    -1.034112     5.072635
 C     4.573109    -1.445259    -0.432809
 C     5.060751    -1.770499     0.830776
 H     4.457735    -2.385516     1.497910
 C     5.336181    -0.682598    -1.314564
 H     4.938986    -0.458151    -2.305307
 C     6.294291    -1.270614     1.238615
 H     6.684556    -1.499132     2.231572
 C     6.565507    -0.178264    -0.907994
 H     7.157827     0.451151    -1.573462
 C     7.031647    -0.461550     0.375908
Cl     8.538912     0.206161     0.904880
 C     2.903160     1.150933    -0.452116
 C     3.214244     1.966204    -1.539458
 H     2.649312     1.848365    -2.466235
 C     3.596933     1.284785     0.751554
 H     3.351846     0.646131     1.599115
 C     4.253207     2.886374    -1.445309
 H     4.516074     3.519331    -2.294284
 C     4.645910     2.193400     0.841925
 H     5.222352     2.281065     1.763857
 C     4.977567     2.983152    -0.258199
Cl     6.309846     4.082766    -0.153041
 C    -3.308673     0.385790    -2.574059
 C    -3.709613     1.692523    -2.300278
 H    -3.022554     2.375519    -1.800985
 C    -4.167935    -0.496052    -3.230229
 H    -3.832466    -1.512439    -3.441288
 C    -4.985596     2.114198    -2.665119
 H    -5.324608     3.130956    -2.459810
 C    -5.444999    -0.078664    -3.594118
 H    -6.138881    -0.749141    -4.103964
 C    -5.840265     1.222543    -3.302251
 F    -7.062171     1.623498    -3.646955
 C    -3.880605    -1.251998     0.488742
 C    -5.083341    -0.595980     0.236237
 H    -5.383788    -0.397577    -0.793092
 C    -3.476803    -1.514666     1.797803
 H    -2.527864    -2.023283     1.974846
 C    -5.881139    -0.186343     1.301739
 H    -6.823675     0.332163     1.119950
 C    -4.264139    -1.094674     2.864992
 H    -3.940024    -1.267447     3.891874
 C    -5.463479    -0.427856     2.610197
Cl    -6.442084     0.109189     3.934925
 C    -1.615854     1.408547     0.301966
 C    -2.648262     1.934204     1.078354
 H    -3.314556     1.259299     1.616372
 C    -0.742278     2.252038    -0.385358
 H     0.070580     1.815045    -0.966067
 C    -2.824231     3.313049     1.146758
 H    -3.631919     3.738392     1.744330
 C    -0.920139     3.630867    -0.320414
 H    -0.247127     4.302576    -0.855441
 C    -1.965358     4.155721     0.440420
Cl    -2.192984     5.870755     0.516313
