  90
scf done:    -4742.032826
 C    -0.830359    -0.313585    -4.487376
 H    -1.549272    -1.075191    -4.800883
 H    -1.170350     0.715942    -4.623034
 C     0.547499    -0.604434    -4.463647
 H     0.903270    -1.593342    -4.765562
 H     1.282149     0.196866    -4.574856
 H     0.147274     0.927512    -2.450492
Rh    -0.206995    -0.623854    -2.423253
 O    -2.214666     1.579751    -0.781011
 O    -3.443518    -0.259109    -1.904360
 O    -2.100772    -0.763886     0.253504
 O     1.506543     0.469183     0.145744
 O     2.026897    -2.004356    -0.382662
 O     3.019906    -0.108900    -1.777403
 P     1.582749    -0.587852    -1.108622
 P    -1.980257     0.000467    -1.217329
 C    -0.571818    -2.519334    -2.390493
 O    -0.776608    -3.641006    -2.337772
 C    -1.207897     2.347047    -0.232931
 C    -0.532296     3.258390    -1.039755
 H    -0.800074     3.336118    -2.094715
 C    -0.895204     2.238965     1.119772
 H    -1.419591     1.516840     1.746093
 C     0.469088     4.051868    -0.484530
 H     0.993754     4.770227    -1.121046
 C     0.106951     3.038753     1.657774
 H     0.355908     2.934849     2.716961
 C     0.816369     3.950074     0.867817
 C     1.932010     4.764142     1.453925
 H     2.158067     5.646527     0.838124
 H     2.856764     4.167407     1.526863
 H     1.688298     5.110088     2.469187
 C    -4.703805     0.077951    -1.463984
 C    -5.111069     1.408269    -1.386955
 H    -4.420460     2.199960    -1.674932
 C    -5.579037    -0.953028    -1.127089
 H    -5.241108    -1.986481    -1.213162
 C    -6.381544     1.708553    -0.903431
 H    -6.711040     2.745272    -0.818490
 C    -6.846109    -0.655215    -0.640890
 H    -7.527843    -1.450639    -0.336801
 C    -7.236022     0.678161    -0.515594
Cl    -8.796102     1.056164     0.135338
 C    -3.211053    -0.909517     1.048292
 C    -3.595009    -2.209104     1.375006
 H    -3.001094    -3.043880     0.998094
 C    -3.938347     0.182159     1.526142
 H    -3.639737     1.196203     1.263093
 C    -4.735377    -2.425837     2.141787
 H    -5.055651    -3.438711     2.390855
 C    -5.085775    -0.032679     2.282006
 H    -5.686211     0.810027     2.627289
 C    -5.486383    -1.334935     2.576988
Cl    -6.942482    -1.599861     3.475566
 C     1.728738     0.251962     1.478215
 C     2.803145     0.882949     2.098632
 H     3.471611     1.507866     1.505254
 C     0.855263    -0.548593     2.212466
 H     0.008703    -1.019198     1.708553
 C     3.010407     0.692774     3.462305
 H     3.860420     1.184296     3.943444
 C     1.082346    -0.731974     3.573728
 H     0.399955    -1.367815     4.144532
 C     2.161177    -0.118653     4.225199
 C     2.377253    -0.300071     5.699758
 H     3.427999    -0.133442     5.976939
 H     2.093048    -1.310594     6.027962
 H     1.768176     0.413200     6.280011
 C     3.302243    -2.410509    -0.076568
 C     3.753665    -2.368108     1.241675
 H     3.095850    -1.995930     2.027271
 C     4.125592    -2.902694    -1.089834
 H     3.751673    -2.935185    -2.114143
 C     5.044423    -2.793349     1.542674
 H     5.411976    -2.757741     2.569212
 C     5.416435    -3.327582    -0.791701
 H     6.072889    -3.706539    -1.576382
 C     5.873817    -3.262362     0.524787
Cl     7.485721    -3.775167     0.898439
 C     3.842824     0.866505    -1.273909
 C     5.058638     0.517884    -0.689261
 H     5.345945    -0.532128    -0.626721
 C     3.459409     2.204425    -1.365955
 H     2.499504     2.456187    -1.818815
 C     5.886280     1.511684    -0.171525
 H     6.835782     1.251462     0.298519
 C     4.281974     3.197885    -0.848511
 H     3.988843     4.247021    -0.904462
 C     5.488282     2.845756    -0.242165
Cl     6.492825     4.083346     0.439273
