  40
scf done:    -1525.609406
 C    -0.775829    -2.789030    -1.011524
 H    -1.513900    -3.278128    -0.367980
 H    -1.106261    -2.653726    -2.044724
 C     0.605677    -2.948779    -0.729493
 H     0.919892    -3.550324     0.128587
 H     1.319811    -2.946047    -1.557244
 H     0.394042    -0.597388    -1.682260
Rh    -0.011627    -0.948266    -0.181889
 C    -1.374873     1.774848    -1.941624
 O    -3.143867     0.343814    -0.691081
 O    -1.562727     1.739395     0.779803
 C     1.736421     1.166884     1.996154
 O     3.282936    -0.053216     0.303180
 O     1.726589     1.749692    -0.658466
 P     1.705156     0.428769     0.338440
 P    -1.539018     0.688893    -0.502427
 C    -0.480270    -1.415958     1.618138
 O    -0.764666    -1.684982     2.694988
 H    -0.379029     2.236251    -1.885335
 H    -1.423474     1.148187    -2.842236
 H    -2.168316     2.533883    -1.980766
 C    -3.732471    -0.646776     0.122035
 H    -3.107735    -1.554687     0.152778
 H    -3.881672    -0.283908     1.153461
 H    -4.711030    -0.894005    -0.312081
 C    -2.422034     2.856766     0.809513
 H    -2.004252     3.701550     0.235622
 H    -3.419312     2.610508     0.409348
 H    -2.528955     3.168063     1.858418
 H     1.753959     0.355449     2.736909
 H     2.612620     1.811863     2.149869
 H     0.802737     1.735740     2.115506
 C     3.733418    -0.845759    -0.774731
 H     2.988308    -1.614251    -1.034029
 H     3.930970    -0.227513    -1.666837
 H     4.668725    -1.331123    -0.463423
 C     2.675611     2.779294    -0.499686
 H     2.374705     3.487664     0.291069
 H     3.672938     2.376332    -0.258389
 H     2.736365     3.326076    -1.451526
