  80
scf done:    -3292.437518
 C     1.338792    -1.598712     3.480465
 H     1.421398    -0.819474     4.243915
 H     0.481175    -2.265178     3.604029
 C     2.495734    -2.046570     2.805333
 H     3.470865    -1.610561     3.039573
 H     2.539492    -3.064714     2.410718
 H     0.598266    -2.137479     1.100910
Rh     1.336683    -0.778427     1.474583
 O    -1.266109    -0.390027    -0.412445
 O    -1.894550    -1.159966     1.921710
 O    -1.480259     1.250095     1.544410
 O     1.756912    -0.071277    -1.826771
 O     3.881767    -0.863352    -0.634445
 O     2.121097    -2.446059    -1.356542
 P     2.278336    -1.046323    -0.551476
 P    -0.812853    -0.201686     1.189095
 C     2.290577     0.805366     1.982052
 O     2.907254     1.715409     2.303672
 C    -2.555869    -0.463317    -0.849143
 C    -3.068724    -1.704121    -1.231780
 H    -2.439537    -2.589802    -1.129150
 C    -3.345855     0.682971    -0.958495
 H    -2.932209     1.643573    -0.653032
 C    -4.366358    -1.803661    -1.723901
 H    -4.776263    -2.768703    -2.026000
 C    -4.647187     0.586564    -1.442804
 H    -5.274757     1.474873    -1.530612
 C    -5.152554    -0.656146    -1.823370
Cl    -6.772007    -0.775624    -2.428169
 C    -3.144405    -0.767038     2.517931
 H    -3.516618     0.128937     1.997669
 C    -2.907866    -0.437907     3.977765
 H    -2.195726     0.392929     4.075540
 H    -2.498805    -1.313149     4.505405
 H    -3.850000    -0.145101     4.465251
 C    -4.111767    -1.911441     2.311210
 H    -4.257531    -2.106086     1.239841
 H    -3.729465    -2.827770     2.786240
 H    -5.088084    -1.668724     2.756304
 C    -0.695514     2.445346     1.673082
 H     0.217372     2.330180     1.062694
 C    -0.319149     2.637676     3.128147
 H     0.202061     1.750250     3.514570
 H    -1.221207     2.803079     3.737403
 H     0.345803     3.506006     3.244754
 C    -1.518283     3.589237     1.123512
 H    -1.763967     3.421604     0.066234
 H    -2.453989     3.697132     1.693353
 H    -0.955428     4.531314     1.184509
 C     1.468791     1.246224    -1.679201
 C     0.283921     1.730839    -2.239066
 H    -0.384001     1.031171    -2.742740
 C     2.330544     2.120753    -1.011932
 H     3.261777     1.742630    -0.587586
 C    -0.032780     3.080511    -2.143401
 H    -0.952219     3.467564    -2.586123
 C     2.005704     3.470511    -0.895121
 H     2.669797     4.155018    -0.365235
 C     0.826545     3.944889    -1.463226
Cl     0.413147     5.623883    -1.314643
 C     4.633611    -1.094660    -1.844996
 H     3.924117    -1.140018    -2.687571
 C     5.350310    -2.421804    -1.716207
 H     4.621387    -3.230357    -1.571041
 H     6.035827    -2.404719    -0.855149
 H     5.935316    -2.633083    -2.624119
 C     5.564050     0.083716    -2.032565
 H     4.996067     1.017532    -2.151318
 H     6.231514     0.187505    -1.163448
 H     6.182684    -0.056811    -2.931411
 C     0.810697    -2.970680    -1.635010
 H     0.067819    -2.336909    -1.121028
 C     0.745760    -4.371325    -1.068096
 H     0.908972    -4.349409     0.019031
 H     1.518904    -5.007805    -1.525414
 H    -0.238028    -4.823952    -1.264615
 C     0.573713    -2.894927    -3.128445
 H     0.659679    -1.854535    -3.470702
 H     1.313793    -3.505076    -3.669058
 H    -0.432130    -3.265277    -3.378426
