 110
scf done:    -2917.626163
 C     0.776993     1.177385     3.665102
 H     0.456695     0.815982     4.645715
 H     1.858697     1.318235     3.578600
 C    -0.101116     1.953319     2.874625
 H    -1.096148     2.209332     3.247885
 H     0.319212     2.681739     2.178836
 H    -1.204410    -0.301878     3.138415
Rh    -0.034306    -0.075866     2.107073
 O     1.161445     1.858033    -0.225289
 C     3.299076     0.752884     1.224371
 C     1.893751    -0.636592    -0.989645
 O    -1.151110    -1.685373    -0.452393
 C    -3.301758    -0.861615     1.175235
 C    -2.008971     0.779306    -0.938155
 P    -1.644687    -0.354977     0.487019
 P     1.614893     0.408056     0.513273
 C     0.532097    -1.762381     2.743184
 O     0.817432    -2.739148     3.277084
 C     1.887956     2.657989    -1.062614
 C     2.082440     2.305302    -2.400033
 H     1.631063     1.389964    -2.781479
 C     2.364269     3.887354    -0.570170
 C     2.032381     4.349614     0.815264
 H     0.945346     4.488197     0.924145
 H     2.333719     3.629833     1.590088
 H     2.522469     5.307340     1.034605
 C     2.834021     3.121956    -3.240573
 H     2.991836     2.827637    -4.280524
 C     3.114237     4.689312    -1.436687
 H     3.500103     5.641389    -1.062575
 C     3.370423     4.310525    -2.752980
 H     3.965999     4.956170    -3.401788
 H     3.237661     1.809594     1.527389
 H     3.286843     0.175693     2.158793
 C     4.567553     0.502628     0.461572
 C     5.041594     1.451874    -0.453318
 H     4.460236     2.357970    -0.633566
 C     5.331921    -0.658428     0.710092
 C     4.896732    -1.692817     1.706145
 H     3.899937    -2.096583     1.472918
 H     4.852366    -1.278020     2.726916
 H     5.597232    -2.537954     1.721640
 C     6.245819     1.270607    -1.127979
 H     6.590349     2.028839    -1.834715
 C     6.537834    -0.823808     0.019295
 H     7.129116    -1.723733     0.208421
 C     6.998888     0.123579    -0.891003
 H     7.946029    -0.035077    -1.412154
 H     0.896062    -0.691232    -1.456513
 H     2.552199    -0.052931    -1.642497
 C     2.449847    -2.019954    -0.796323
 C     1.790758    -2.927301     0.038808
 H     0.852174    -2.617220     0.494974
 C     3.608296    -2.434135    -1.487720
 C     4.278108    -1.560491    -2.507373
 H     5.181009    -2.044194    -2.902892
 H     4.579941    -0.587764    -2.094245
 H     3.605740    -1.362131    -3.358721
 C     2.299425    -4.201601     0.272132
 H     1.776793    -4.879175     0.951393
 C     4.106355    -3.718225    -1.240526
 H     5.011542    -4.037996    -1.764020
 C     3.477004    -4.593340    -0.358038
 H     3.897907    -5.585874    -0.179963
 C    -1.936099    -2.545966    -1.160575
 C    -2.329338    -2.236085    -2.465178
 H    -1.994315    -1.298970    -2.910921
 C    -2.283904    -3.777677    -0.576394
 C    -1.753469    -4.179018     0.767479
 H    -0.804613    -4.727813     0.649984
 H    -1.534277    -3.314637     1.406944
 H    -2.456241    -4.840867     1.292755
 C    -3.132438    -3.116504    -3.183540
 H    -3.444762    -2.860883    -4.198540
 C    -3.097906    -4.641035    -1.318526
 H    -3.390913    -5.595599    -0.872794
 C    -3.533226    -4.317826    -2.601922
 H    -4.172070    -5.011655    -3.152599
 H    -3.196896    -1.947834     1.320337
 H    -3.281676    -0.426504     2.181965
 C    -4.594997    -0.550297     0.480907
 C    -5.110654    -1.427506    -0.482128
 H    -4.545836    -2.323666    -0.744366
 C    -5.344699     0.589158     0.846758
 C    -4.871467     1.534044     1.911448
 H    -4.809684     1.034660     2.892849
 H    -5.558026     2.384888     2.011971
 H    -3.873555     1.939679     1.687866
 C    -6.336995    -1.189809    -1.097019
 H    -6.714084    -1.892494    -1.843544
 C    -6.573260     0.812939     0.215138
 H    -7.151804     1.697413     0.495006
 C    -7.072122    -0.059606    -0.748521
 H    -8.035935     0.142402    -1.222055
 H    -1.030311     0.882115    -1.437128
 H    -2.670388     0.215375    -1.606706
 C    -2.584603     2.134173    -0.642274
 C    -1.933997     2.977448     0.263689
 H    -1.011341     2.623773     0.719718
 C    -3.751746     2.585573    -1.292685
 C    -4.429252     1.773090    -2.356775
 H    -4.716749     0.774126    -1.998677
 H    -3.768431     1.633092    -3.228448
 H    -5.342177     2.272262    -2.707931
 C    -2.446267     4.231480     0.583869
 H    -1.924782     4.865711     1.305173
 C    -4.257113     3.845648    -0.952423
 H    -5.168971     4.194428    -1.445021
 C    -3.626016     4.662365    -0.016928
 H    -4.049510     5.639334     0.228693
