 102
scf done:    -3061.299537
 C    -0.950327    -3.826872    -1.595713
 H    -0.320880    -4.235244    -2.391359
 H    -0.855244    -4.333664    -0.632550
 C    -2.153209    -3.159325    -1.909270
 H    -2.462561    -3.047415    -2.952301
 H    -2.973855    -3.146004    -1.187476
 H    -1.186940    -1.954609     0.103857
Rh    -0.653860    -1.686580    -1.362825
 O     1.524668    -1.696919     1.247861
 O     2.611624    -2.135730    -0.974616
 O     1.811470     0.229145    -0.377331
 O    -1.506649     1.434244    -2.130516
 O    -3.346594     0.349752    -0.873131
 O    -1.201929     0.939457     0.398872
 P    -1.692408     0.255692    -1.014948
 P     1.311516    -1.341451    -0.358999
 C    -0.040986    -1.400170    -3.176569
 O     0.334020    -1.220343    -4.239753
 C     0.511329    -2.074391     2.094897
 C    -0.256663    -1.104597     2.733061
 H    -0.084501    -0.051242     2.509874
 C     0.310556    -3.443936     2.318222
 C     1.168294    -4.451436     1.617636
 H     1.109179    -4.336031     0.524429
 H     2.228771    -4.323678     1.886830
 H     0.866142    -5.475337     1.875371
 C    -1.255045    -1.494241     3.623366
 H    -1.858777    -0.734146     4.124597
 C    -0.703022    -3.807116     3.209469
 H    -0.881641    -4.869356     3.396787
 C    -1.480627    -2.848725     3.859226
 H    -2.261663    -3.163115     4.555511
 C     3.933915    -1.778086    -0.836434
 C     4.559639    -1.760373     0.409175
 H     3.994016    -2.042724     1.297353
 C     4.640351    -1.433816    -1.984538
 H     4.131305    -1.472696    -2.949522
 C     5.880452    -1.335872     0.499671
 H     6.358041    -1.296687     1.482462
 C     5.966593    -1.023615    -1.876587
 H     6.514014    -0.742785    -2.780598
 C     6.604301    -0.946201    -0.633982
 C     8.006391    -0.426310    -0.507567
 H     8.002661     0.627402    -0.180254
 H     8.544265    -0.471921    -1.465188
 H     8.584299    -0.994883     0.236311
 C     2.846337     0.869408     0.263017
 C     3.790195     1.523833    -0.526753
 H     3.697472     1.468631    -1.612078
 C     2.929590     0.940245     1.652415
 H     2.187575     0.437013     2.269879
 C     4.839798     2.206123     0.075346
 H     5.582201     2.702403    -0.555979
 C     3.989191     1.629878     2.238613
 H     4.052768     1.670648     3.329543
 C     4.969370     2.263137     1.469034
 C     6.137297     2.957279     2.107582
 H     6.402682     3.880279     1.570607
 H     7.031409     2.310989     2.103788
 H     5.928460     3.220249     3.154417
 C    -1.877229     2.759731    -2.005703
 C    -3.208805     3.128004    -2.173275
 H    -3.945315     2.354508    -2.391014
 C    -0.870234     3.697593    -1.740241
 C     0.561793     3.272932    -1.639973
 H     1.177254     4.062341    -1.188526
 H     0.679276     2.356282    -1.047314
 H     0.969326     3.048777    -2.639828
 C    -3.570910     4.464191    -2.026639
 H    -4.615826     4.759394    -2.146597
 C    -1.266787     5.029305    -1.587182
 H    -0.504734     5.778096    -1.355560
 C    -2.599533     5.414661    -1.719764
 H    -2.877721     6.463088    -1.590304
 C    -4.084213    -0.641700    -0.276003
 C    -5.197393    -1.128905    -0.957860
 H    -5.438329    -0.716407    -1.939267
 C    -3.743712    -1.160163     0.971886
 H    -2.869833    -0.783795     1.504963
 C    -5.962079    -2.142550    -0.389859
 H    -6.829448    -2.524989    -0.935098
 C    -4.510781    -2.185898     1.517807
 H    -4.215861    -2.601944     2.484845
 C    -5.631360    -2.696166     0.854110
 C    -6.468391    -3.782467     1.465066
 H    -6.895113    -4.443508     0.696445
 H    -7.311854    -3.360604     2.037268
 H    -5.879943    -4.401056     2.157937
 C    -1.470554     2.139273     1.013657
 C    -2.755928     2.669279     1.121974
 H    -3.602826     2.139187     0.688596
 C    -0.386323     2.804840     1.581225
 H     0.610870     2.370347     1.493748
 C    -2.931287     3.894037     1.756668
 H    -3.938882     4.314327     1.817935
 C    -0.585578     4.024340     2.222036
 H     0.274480     4.543121     2.654339
 C    -1.856298     4.600766     2.309436
 C    -2.064991     5.944617     2.944129
 H    -2.961679     5.956621     3.582157
 H    -2.203567     6.724108     2.176049
 H    -1.204044     6.238410     3.561311
