  76
scf done:    -2545.118897
 C     0.707840    -3.545994     0.765368
 H     1.365883    -4.095113     0.083558
 H     1.077260    -3.489978     1.793023
 C    -0.689350    -3.543696     0.513655
 H    -1.072409    -4.089483    -0.354541
 H    -1.396783    -3.483632     1.345249
 H    -0.176697    -1.329831     1.573453
Rh     0.102853    -1.607587     0.032560
 C     1.824621     0.827388     1.942184
 C     3.540166    -0.563395     0.128590
 C     1.723232     1.357660    -0.878029
 C    -1.704881     0.809944    -1.806179
 C    -3.367146    -0.877053    -0.198350
 C    -1.776380     1.123797     1.083588
 P    -1.682218    -0.152331    -0.230137
 P     1.791949    -0.036780     0.315422
 C     0.418020    -2.017919    -1.802464
 O     0.594454    -2.273567    -2.908626
 H     2.588246     1.623382     1.909390
 H     0.839556     1.309318     2.057336
 C     2.079343    -0.110622     3.112713
 H     3.071809    -0.579079     2.999335
 H     1.345350    -0.932126     3.069911
 C     1.988630     0.603364     4.452134
 H     2.730553     1.414431     4.528898
 H     0.992572     1.053170     4.593150
 H     2.165640    -0.089527     5.288580
 C     4.578961     0.372977     0.030981
 H     4.352135     1.442753     0.023078
 C     3.849481    -1.925902     0.113060
 H     3.031682    -2.646881     0.179478
 C     5.901788    -0.041542    -0.074249
 H     6.724011     0.671682    -0.156399
 C     5.170737    -2.356563     0.010005
 H     5.429799    -3.416704    -0.004925
 C     6.178730    -1.405889    -0.081235
 F     7.443337    -1.806019    -0.184136
 C     1.895053     1.067807    -2.241125
 H     2.163715     0.054819    -2.550650
 C     1.390898     2.666170    -0.512074
 H     1.260047     2.930507     0.537617
 C     1.708216     2.041583    -3.213780
 H     1.828682     1.821061    -4.275837
 C     1.188956     3.653079    -1.478358
 H     0.915455     4.673850    -1.204235
 C     1.336652     3.323518    -2.817781
 F     1.116344     4.252412    -3.745527
 H    -0.813789     1.458235    -1.770888
 H    -1.481666     0.064674    -2.587456
 C    -2.953559     1.598837    -2.174139
 H    -3.257954     2.250033    -1.337896
 H    -3.793379     0.901093    -2.322617
 C    -2.741484     2.436034    -3.427364
 H    -1.920878     3.159926    -3.293969
 H    -2.476262     1.801333    -4.287871
 H    -3.647763     2.999882    -3.695201
 C    -4.473509    -0.219039     0.353229
 H    -4.346569     0.753139     0.834993
 C    -3.556205    -2.123621    -0.807230
 H    -2.690783    -2.650374    -1.215949
 C    -5.741882    -0.790961     0.300546
 H    -6.613032    -0.294111     0.731471
 C    -4.820309    -2.700460    -0.880458
 H    -4.981879    -3.671576    -1.351732
 C    -5.898189    -2.024718    -0.320188
 F    -7.108606    -2.574858    -0.373693
 C    -1.931207     0.690259     2.410229
 H    -2.056098    -0.375914     2.615112
 C    -1.593228     2.489722     0.847260
 H    -1.464200     2.861991    -0.169120
 C    -1.902532     1.588345     3.469489
 H    -2.021500     1.258856     4.503230
 C    -1.546767     3.402991     1.901770
 H    -1.396297     4.469950     1.727012
 C    -1.700113     2.939463     3.200438
 F    -1.652402     3.802182     4.211862
