  84
scf done:    -2452.965991
 C     0.576294    -3.496910     1.361368
 H     1.128982    -4.152405     0.681645
 H     1.109570    -3.255283     2.285086
 C    -0.838736    -3.482503     1.339820
 H    -1.381193    -4.131443     0.645494
 H    -1.400228    -3.227030     2.242367
 H    -0.177890    -1.105968     1.844494
Rh    -0.106600    -1.699685     0.366708
 C     1.565091     1.058292    -1.012804
 C     2.802889     0.122447     1.466211
 C     3.100473    -1.409048    -0.931114
 C    -2.242144     0.137529    -1.683829
 C    -3.497672    -1.089890     0.615145
 C    -1.934359     1.321326     0.960250
 P    -1.918033    -0.306542     0.108882
 P     1.837022    -0.481683     0.023224
 C    -0.150082    -2.457874    -1.377220
 O    -0.215197    -2.913957    -2.430132
 H     0.677364     1.526107    -0.563670
 H     1.251769     0.674008    -1.995885
 C     2.678672     2.047047    -1.127153
 C     3.718393     1.882795    -2.052150
 H     3.700073     1.034733    -2.740067
 C     2.726490     3.142604    -0.255682
 H     1.919807     3.281427     0.469300
 C     4.785461     2.777657    -2.087808
 H     5.589961     2.630876    -2.812649
 C     3.790028     4.040451    -0.293303
 H     3.810141     4.886390     0.398011
 C     4.828227     3.857225    -1.205455
 H     5.665946     4.558041    -1.234411
 C     2.275018    -0.005585     2.755148
 C     4.065197     0.717584     1.308289
 C     4.215890     1.082232     3.692679
 C     4.762691     1.194724     2.414014
 C     2.973199     0.476433     3.862124
 H     1.307764    -0.500667     2.878132
 H     2.544367     0.368312     4.861237
 H     4.765674     1.459311     4.558703
 H     5.740787     1.660458     2.272573
 H     4.512202     0.803799     0.316586
 C     4.129022    -2.097063    -0.274728
 C     2.966360    -1.568650    -2.317278
 C     4.883478    -3.037447    -2.370722
 C     3.853108    -2.369866    -3.031591
 C     5.013302    -2.902092    -0.989909
 H     4.239714    -2.003236     0.807678
 H     5.810872    -3.428581    -0.460028
 H     5.578618    -3.667423    -2.930487
 H     3.732437    -2.477907    -4.112134
 H     2.152881    -1.075467    -2.854599
 H    -2.419558    -0.830659    -2.177107
 H    -1.270549     0.500144    -2.050226
 C    -3.326111     1.119730    -1.985374
 C    -3.010493     2.462384    -2.228196
 H    -1.961850     2.771990    -2.233703
 C    -4.675791     0.741050    -1.976651
 H    -4.941753    -0.301636    -1.789392
 C    -4.012218     3.406552    -2.439622
 H    -3.744094     4.449685    -2.623661
 C    -5.678964     1.685349    -2.181311
 H    -6.726024     1.373158    -2.164543
 C    -5.351846     3.022447    -2.409134
 H    -6.140258     3.761528    -2.570110
 C    -3.911090    -2.231721    -0.087811
 C    -4.241843    -0.678038     1.724476
 C    -5.814022    -2.483282     1.377183
 C    -5.392295    -1.372344     2.101874
 C    -5.065324    -2.914062     0.279965
 H    -3.311483    -2.602534    -0.923997
 H    -5.376254    -3.796540    -0.284436
 H    -6.717200    -3.022736     1.671823
 H    -5.962022    -1.036971     2.971979
 H    -3.922226     0.189198     2.305157
 C    -0.789935     1.726237     1.656156
 C    -3.036453     2.191006     0.915495
 C    -1.821163     3.836125     2.207526
 C    -2.975753     3.437667     1.533883
 C    -0.728175     2.974513     2.272900
 H     0.054106     1.039500     1.724375
 H     0.176777     3.263863     2.813165
 H    -1.778691     4.816085     2.689361
 H    -3.840914     4.103048     1.484953
 H    -3.952753     1.895497     0.402648
