 110
scf done:    -2393.686496
 C     0.428576    -2.719452    -2.458880
 H     0.999667    -2.459601    -3.355913
 H     0.930612    -3.439309    -1.804858
 C    -0.991160    -2.687406    -2.498895
 H    -1.497797    -2.403540    -3.426604
 H    -1.564086    -3.379507    -1.874648
 H    -0.326966    -1.986446    -0.125706
Rh    -0.273530    -0.991558    -1.379881
 C     2.423590    -1.535006     0.729804
 C     3.010113     0.194348    -1.599114
 C     1.608659     1.258196     0.686778
 C    -2.836801     1.406150    -1.174055
 C    -3.602656    -1.244334    -0.322401
 C    -1.988154     0.443715     1.408782
 P    -2.141635    -0.119384    -0.346577
 P     1.679207    -0.240858    -0.389896
 C    -0.237505     0.213299    -2.846215
 O    -0.212106     0.966828    -3.715157
 H     1.693833    -1.621040     1.550476
 H     2.339610    -2.468474     0.158011
 C     3.805539    -1.310135     1.260281
 C     3.993646    -0.465350     2.361997
 H     3.116490    -0.040598     2.857313
 C     4.933792    -1.902303     0.652220
 C     4.798007    -2.881541    -0.479215
 H     4.282472    -2.450437    -1.349968
 H     4.217546    -3.767974    -0.175842
 H     5.784329    -3.229155    -0.815506
 C     5.265710    -0.148897     2.829651
 H     5.383647     0.520784     3.684721
 C     6.205556    -1.573144     1.133373
 H     7.080866    -2.022715     0.656314
 C     6.381618    -0.694651     2.200290
 H     7.388282    -0.452619     2.548907
 H     3.316718    -0.766785    -2.043750
 H     2.501967     0.730473    -2.417185
 C     4.216479     0.989128    -1.109740
 H     3.922827     2.042146    -0.957444
 H     4.550761     0.624771    -0.127484
 C     5.395668     0.929838    -2.070369
 H     5.090034     1.301904    -3.065490
 H     5.681560    -0.127659    -2.219712
 C     6.608010     1.707927    -1.579105
 H     6.324822     2.765413    -1.431928
 H     6.888518     1.331295    -0.579418
 C     7.802290     1.622533    -2.515355
 H     8.662121     2.193120    -2.132493
 H     7.558069     2.019371    -3.514020
 H     8.129460     0.578660    -2.649349
 H     1.009504     0.970114     1.565367
 H     2.613363     1.518735     1.055573
 C     0.956765     2.437308    -0.020264
 H     1.619223     2.811443    -0.820409
 H     0.049999     2.075845    -0.534629
 C     0.585041     3.582369     0.910533
 H     1.490165     3.965062     1.415625
 H    -0.060940     3.193918     1.720463
 C    -0.130908     4.725895     0.205133
 H     0.530185     5.141162    -0.575515
 H    -1.007449     4.324589    -0.334516
 C    -0.578757     5.832260     1.145792
 H    -1.087100     6.644671     0.605181
 H     0.276613     6.272468     1.683107
 H    -1.280501     5.449462     1.904926
 H    -1.999290     2.121383    -1.175755
 H    -2.984670     1.115072    -2.223686
 C    -4.062485     2.037688    -0.585075
 C    -3.929320     2.909994     0.504295
 H    -2.928422     3.139972     0.877706
 C    -5.352687     1.787180    -1.101458
 C    -5.565259     0.944226    -2.327093
 H    -5.216616    -0.089439    -2.190783
 H    -5.022207     1.353548    -3.194506
 H    -6.630485     0.903943    -2.592411
 C    -5.034353     3.497167     1.112263
 H    -4.896978     4.172663     1.959906
 C    -6.454399     2.383101    -0.475913
 H    -7.453264     2.188242    -0.876158
 C    -6.309394     3.222330     0.625258
 H    -7.189776     3.672314     1.090035
 H    -4.488399    -0.685920     0.026798
 H    -3.765823    -1.503649    -1.381885
 C    -3.416414    -2.523492     0.481711
 H    -2.408783    -2.930578     0.290391
 H    -3.455145    -2.294013     1.559818
 C    -4.464458    -3.579936     0.161117
 H    -4.408682    -3.827626    -0.914800
 H    -5.474781    -3.160043     0.319973
 C    -4.310415    -4.854008     0.979584
 H    -3.295631    -5.260647     0.822790
 H    -4.367549    -4.602941     2.053781
 C    -5.345618    -5.916064     0.646450
 H    -5.208321    -6.823648     1.253692
 H    -5.285673    -6.212889    -0.413084
 H    -6.368541    -5.547328     0.825898
 H    -1.450011     1.404608     1.349387
 H    -2.990820     0.673892     1.806154
 C    -1.224742    -0.491543     2.335598
 H    -1.819422    -1.394223     2.546656
 H    -0.329387    -0.856922     1.807680
 C    -0.818418     0.164741     3.647515
 H    -1.718937     0.487635     4.200605
 H    -0.257409     1.094018     3.433098
 C     0.030934    -0.736512     4.532891
 H    -0.531329    -1.660206     4.755992
 H     0.920316    -1.063662     3.964305
 C     0.470954    -0.074851     5.828351
 H     1.083810    -0.751077     6.443249
 H    -0.396037     0.233186     6.434641
 H     1.069668     0.829284     5.630804
