  76
scf done:    -2148.347733
 C     0.762190    -3.476748     0.556692
 H     1.392349    -3.983992    -0.181479
 H     1.179366    -3.467119     1.567428
 C    -0.645192    -3.473537     0.370366
 H    -1.066562    -3.976713    -0.505686
 H    -1.313936    -3.458818     1.235329
 H    -0.098825    -1.309025     1.513072
Rh     0.110300    -1.509796    -0.051066
 C     1.893504     0.851515     1.892048
 C     3.540570    -0.431766    -0.055157
 C     1.670917     1.514133    -0.897219
 C    -1.841336     0.942814    -1.689128
 C    -3.373368    -0.833165    -0.059490
 C    -1.742581     1.153640     1.209216
 P    -1.703502    -0.074654    -0.153003
 P     1.793811     0.066647     0.228104
 C     0.340764    -1.825049    -1.916566
 O     0.462979    -2.025620    -3.041545
 H     2.648709     1.655401     1.862689
 H     0.911137     1.317480     2.075663
 C     2.211005    -0.140613     3.001026
 H     3.200265    -0.593301     2.817334
 H     1.481622    -0.965842     2.952498
 C     2.179203     0.504766     4.377407
 H     2.917253     1.319117     4.458773
 H     1.187032     0.935867     4.587171
 H     2.402456    -0.226878     5.168798
 C     3.858410    -1.787731    -0.157664
 C     4.563832     0.522231    -0.139234
 C     6.196329    -1.236938    -0.411538
 C     5.884709     0.120855    -0.315903
 C     5.182983    -2.189420    -0.333270
 H     3.047866    -2.517647    -0.100805
 H     5.421867    -3.252699    -0.412945
 H     7.233658    -1.550388    -0.552859
 H     6.676807     0.870621    -0.384640
 H     4.322872     1.587519    -0.080274
 C     1.363259     2.805608    -0.456527
 C     1.804771     1.286994    -2.275696
 C     1.286698     3.600263    -2.740366
 C     1.617839     2.319057    -3.188138
 C     1.166052     3.839968    -1.374218
 H     1.256505     3.014033     0.608508
 H     0.917704     4.841328    -1.013069
 H     1.129835     4.409607    -3.457303
 H     1.723255     2.121951    -4.257588
 H     2.049981     0.285388    -2.637774
 H    -0.966695     1.615340    -1.684342
 H    -1.649258     0.233494    -2.511083
 C    -3.135274     1.704327    -1.940745
 H    -3.403571     2.305407    -1.056059
 H    -3.959906     0.984495    -2.066722
 C    -3.035903     2.604872    -3.163041
 H    -2.240198     3.357569    -3.040086
 H    -2.795736     2.022722    -4.067085
 H    -3.980169     3.138658    -3.349807
 C    -3.580742    -2.032252    -0.751494
 C    -4.448295    -0.241132     0.614203
 C    -5.907137    -2.029817    -0.104232
 C    -5.706447    -0.840984     0.595719
 C    -4.841920    -2.622386    -0.781911
 H    -2.734898    -2.505511    -1.256062
 H    -4.990603    -3.557400    -1.327466
 H    -6.894301    -2.498166    -0.117420
 H    -6.536913    -0.373019     1.130180
 H    -4.301972     0.694627     1.158626
 C    -1.833584     0.673855     2.525227
 C    -1.581106     2.527934     1.006941
 C    -1.589815     2.914893     3.394376
 C    -1.498300     3.401424     2.093458
 C    -1.766379     1.545460     3.606603
 H    -1.939270    -0.400325     2.697365
 H    -1.839855     1.153091     4.623747
 H    -1.524121     3.598831     4.243790
 H    -1.362081     4.471155     1.915766
 H    -1.497625     2.930608    -0.002846
