  72
scf done:    -1696.230383
 C    -2.653478    -2.374750    -1.396533
 H    -2.849429    -3.316576    -0.874141
 H    -3.526471    -1.719640    -1.471763
 C    -1.660797    -2.342809    -2.412697
 H    -1.107654    -3.257119    -2.650647
 H    -1.782201    -1.662552    -3.260169
 H    -1.616237    -0.053865    -1.339864
Rh    -0.927810    -1.325748    -0.658149
 C    -1.415288     1.560802     1.368182
 C    -3.381760    -0.491172     1.733425
 C    -0.722421    -0.804227     2.834935
 C     2.184640    -0.019519     0.289004
 C     2.184122    -1.084581    -2.397751
 C     0.838413     1.433222    -1.881346
 P     1.067884    -0.259951    -1.176109
 P    -1.600506    -0.277127     1.290881
 C    -0.113930    -2.845200     0.138769
 O     0.398278    -3.746986     0.637126
 H    -1.676818     1.910568     2.381067
 H    -0.337097     1.758524     1.235998
 C    -2.215981     2.326753     0.325352
 H    -2.069071     1.853810    -0.660757
 H    -3.294089     2.234162     0.542904
 C    -1.842945     3.800718     0.249974
 H    -0.761402     3.890793     0.035244
 H    -1.988022     4.273847     1.238506
 C    -2.626719     4.571641    -0.802695
 H    -2.480059     4.087584    -1.784428
 H    -3.706086     4.482899    -0.586563
 C    -2.240079     6.038999    -0.890629
 H    -2.822453     6.568327    -1.659913
 H    -1.173453     6.156426    -1.142063
 H    -2.409006     6.555409     0.068148
 H    -3.942934    -0.156170     0.846609
 C    -3.741593    -1.929594     2.068349
 H    -3.264628    -2.264148     3.002696
 H    -3.414068    -2.605143     1.264669
 H    -3.643329     0.192675     2.559447
 H    -4.828728    -2.047597     2.193137
 H     0.339053    -0.563587     2.658945
 C    -1.195403    -0.238761     4.164433
 H    -2.244795    -0.498574     4.370855
 H    -1.110630     0.857640     4.204103
 H    -0.772563    -1.905192     2.838297
 H    -0.591956    -0.640118     4.993563
 H     1.748857     0.827573     0.848520
 H     2.013652    -0.904985     0.923169
 C     3.683274     0.181320     0.101432
 H     4.118555    -0.714415    -0.372515
 H     3.884624     1.014572    -0.590612
 C     4.402057     0.441625     1.419091
 H     4.191294    -0.387498     2.119143
 H     3.978010     1.345890     1.893503
 C     5.908041     0.608544     1.271746
 H     6.326825    -0.297255     0.798597
 H     6.112825     1.433921     0.566812
 C     6.618322     0.872643     2.589509
 H     7.703884     0.988302     2.450768
 H     6.460274     0.046024     3.300816
 H     6.244388     1.792375     3.067707
 H     2.432126    -2.062826    -1.952519
 C     1.546574    -1.271039    -3.764749
 H     1.344712    -0.305014    -4.253482
 H     0.591392    -1.806959    -3.679212
 H     3.129453    -0.523827    -2.479222
 H     2.208461    -1.844145    -4.431822
 H     0.203756     1.960558    -1.152169
 C     2.052265     2.269345    -2.250070
 H     2.727834     1.740800    -2.940108
 H     2.637153     2.558628    -1.364655
 H     0.186246     1.272682    -2.755154
 H     1.740508     3.200154    -2.749715
