  92
scf done:    -2606.274096
 C    -0.516186    -3.669649     0.772784
 H     0.184709    -4.294860     0.210291
 H    -0.385295    -3.715058     1.856938
 C    -1.790093    -3.387027     0.228027
 H    -2.059410    -3.783162    -0.755581
 H    -2.640552    -3.208546     0.889777
 H    -1.146797    -1.316705     1.532297
Rh    -0.555801    -1.611099     0.087801
 C     0.966238     0.521038     2.412536
 O     2.717428    -1.044692     1.298584
 O     1.641679     0.694726    -0.291259
 C    -1.599678     0.940403    -2.118436
 O    -3.494512    -0.028753    -0.586397
 O    -1.707240     1.394136     0.612316
 P    -1.839448     0.148708    -0.492163
 P     1.223804    -0.440889     0.875326
 C     0.097729    -2.015311    -1.673040
 O     0.468513    -2.247983    -2.731364
 H     0.429632     1.427016     2.081999
 H     0.216511    -0.060979     2.971266
 C     2.163375     0.840217     3.299392
 H     2.987030     1.258396     2.702781
 H     2.555802    -0.100348     3.714868
 C     1.793624     1.799471     4.419837
 H     1.446919     2.767104     4.021323
 H     0.981182     1.394769     5.044458
 H     2.653312     1.997865     5.077757
 C     3.538642    -1.825172     0.525383
 C     3.060401    -2.933089    -0.170417
 H     2.004824    -3.189863    -0.087140
 C     4.898217    -1.471942     0.499639
 C     5.402449    -0.317377     1.308458
 H     4.941325     0.629306     0.989811
 H     5.158701    -0.446967     2.374079
 H     6.491705    -0.217970     1.209592
 C     3.931683    -3.682331    -0.958944
 H     3.550964    -4.543019    -1.513486
 C     5.747584    -2.245227    -0.296186
 H     6.808070    -1.981576    -0.335231
 C     5.277200    -3.332617    -1.031911
 H     5.965967    -3.912635    -1.650059
 C     2.772949     1.456410    -0.418058
 C     3.011013     2.540194     0.427478
 H     2.296179     2.772195     1.217461
 C     3.630752     1.167821    -1.493500
 C     3.315397     0.053925    -2.441941
 H     3.387552    -0.929084    -1.952027
 H     2.287331     0.140391    -2.824018
 H     4.008457     0.058177    -3.293550
 C     4.149613     3.324096     0.250156
 H     4.336498     4.166107     0.920409
 C     4.765173     1.970450    -1.646241
 H     5.449369     1.754523    -2.471170
 C     5.036302     3.030971    -0.782862
 H     5.933314     3.636979    -0.927584
 H    -0.598401     1.401159    -2.074685
 H    -1.496739     0.082558    -2.805424
 C    -2.652206     1.909428    -2.643195
 H    -2.776942     2.748970    -1.943264
 H    -3.623358     1.392428    -2.679479
 C    -2.284699     2.446568    -4.017565
 H    -1.334599     3.003304    -3.985102
 H    -2.167736     1.632693    -4.751324
 H    -3.058245     3.130813    -4.397582
 C    -4.184328    -0.922269     0.192009
 C    -4.134844    -0.853166     1.582027
 H    -3.519494    -0.086526     2.054554
 C    -4.941316    -1.898260    -0.471079
 C    -4.923978    -1.966964    -1.966549
 H    -5.234516    -1.011413    -2.416415
 H    -3.905369    -2.173389    -2.334026
 H    -5.589428    -2.759400    -2.334747
 C    -4.852545    -1.774900     2.341291
 H    -4.808453    -1.728761     3.431738
 C    -5.661540    -2.801661     0.314102
 H    -6.256424    -3.572687    -0.183022
 C    -5.619449    -2.749743     1.707116
 H    -6.184952    -3.474648     2.296679
 C    -1.704658     2.743896     0.366592
 C    -0.539817     3.342034    -0.111440
 H     0.328061     2.712674    -0.311063
 C    -2.851247     3.499195     0.658709
 C    -4.087211     2.838086     1.184313
 H    -4.437621     2.050210     0.501152
 H    -3.894245     2.352318     2.153775
 H    -4.895683     3.568300     1.322642
 C    -0.505426     4.716269    -0.335684
 H     0.408488     5.178008    -0.716442
 C    -2.786247     4.877124     0.429404
 H    -3.669535     5.484317     0.645758
 C    -1.634406     5.486548    -0.067679
 H    -1.620156     6.565065    -0.239646
