 106
scf done:    -2989.332147
 C     1.084694    -3.237786    -1.449938
 H     1.702053    -3.210099    -2.352889
 H     1.610310    -3.603400    -0.562711
 C    -0.315146    -3.449802    -1.545588
 H    -0.773785    -3.598417    -2.528863
 H    -0.830838    -3.964769    -0.730079
 H    -0.009207    -1.879198     0.424814
Rh     0.069590    -1.377926    -1.083462
 C     2.002611     0.023384     1.571751
 C     3.454003    -0.232106    -0.937275
 C     1.559897     1.856102    -0.650920
 C    -2.454064     1.127855    -1.406081
 C    -3.312100    -1.227963     0.036266
 C    -1.491658     0.568973     1.291647
 P    -1.805503    -0.252372    -0.316589
 P     1.760449     0.058656    -0.300546
 C    -0.021722    -0.893074    -2.922585
 O    -0.156514    -0.642600    -4.036522
 H     2.053939     1.060559     1.923996
 H     1.069271    -0.394213     1.965989
 C     3.207990    -0.731091     2.045589
 C     4.459100    -0.103398     2.006313
 H     4.521222     0.930003     1.655356
 C     3.125833    -2.067136     2.486540
 C     1.808308    -2.780102     2.586794
 H     1.258726    -2.759720     1.632799
 H     1.151198    -2.302062     3.332458
 H     1.948397    -3.827908     2.886233
 C     5.623809    -0.771892     2.365616
 H     6.587141    -0.259803     2.310866
 C     4.307113    -2.727591     2.846153
 H     4.245221    -3.765639     3.185073
 C     5.547739    -2.098842     2.782010
 H     6.452106    -2.644228     3.062949
 C     4.288195     0.782512    -1.427386
 H     3.916567     1.806240    -1.504135
 C     3.967697    -1.530941    -0.871852
 H     3.335635    -2.339114    -0.504325
 C     5.592784     0.509186    -1.814212
 H     6.246658     1.294791    -2.197784
 C     5.278386    -1.816638    -1.239842
 H     5.642696    -2.839859    -1.150067
 C     6.105682    -0.789816    -1.709416
 O     7.389949    -0.959261    -2.082818
 C     7.959929    -2.232278    -1.968445
 H     7.445064    -2.973275    -2.605352
 H     9.001714    -2.142681    -2.301945
 H     7.947904    -2.594619    -0.925075
 C     0.881843     2.237441    -1.818627
 H     0.496060     1.466825    -2.486705
 C     2.057791     2.876342     0.163835
 H     2.619006     2.638994     1.069531
 C     0.679646     3.570685    -2.140947
 H     0.146325     3.860579    -3.048154
 C     1.857237     4.223431    -0.136444
 H     2.255635     4.982334     0.537356
 C     1.154067     4.581386    -1.292991
 O     0.897292     5.847016    -1.666971
 C     1.344251     6.897542    -0.855420
 H     2.444565     6.905679    -0.763439
 H     1.022156     7.827830    -1.339718
 H     0.903282     6.850249     0.155914
 H    -1.689577     1.917502    -1.364121
 H    -2.406435     0.713300    -2.422432
 C    -3.815685     1.664212    -1.087956
 C    -3.965867     2.667275    -0.121687
 H    -3.077523     3.080815     0.358393
 C    -4.966550     1.147569    -1.721635
 C    -4.871506     0.094281    -2.786371
 H    -4.427896    -0.833862    -2.395713
 H    -4.245777     0.423928    -3.631715
 H    -5.865997    -0.151011    -3.183132
 C    -5.221757     3.137785     0.250338
 H    -5.308524     3.915865     1.012430
 C    -6.220446     1.635854    -1.339972
 H    -7.111438     1.230719    -1.827413
 C    -6.358896     2.612648    -0.357773
 H    -7.352837     2.968879    -0.076526
 C    -4.359685    -0.739449     0.837164
 H    -4.267435     0.232221     1.326814
 C    -3.468821    -2.472956    -0.572731
 H    -2.653639    -2.853825    -1.190484
 C    -5.519979    -1.474462     1.010715
 H    -6.341265    -1.099844     1.624194
 C    -4.633832    -3.222715    -0.409982
 H    -4.717719    -4.191229    -0.903265
 C    -5.670552    -2.721530     0.384617
 O    -6.834809    -3.360449     0.607183
 C    -7.046709    -4.606684     0.005614
 H    -6.304838    -5.354638     0.336808
 H    -8.046480    -4.938908     0.312793
 H    -7.015147    -4.541528    -1.096374
 C    -0.983880     1.872312     1.388248
 H    -0.871575     2.492285     0.497649
 C    -1.573618    -0.186693     2.465900
 H    -1.948752    -1.212303     2.420295
 C    -0.581494     2.399359     2.607026
 H    -0.179705     3.411860     2.676730
 C    -1.170384     0.326817     3.696942
 H    -1.249693    -0.300030     4.585409
 C    -0.664652     1.630667     3.774460
 O    -0.235311     2.215527     4.909441
 C    -0.248733     1.473145     6.096671
 H     0.383327     0.570580     6.022272
 H     0.155663     2.125640     6.880783
 H    -1.271604     1.168146     6.380013
