  94
scf done:    -3229.084821
 C    -0.390556     1.329193    -4.036635
 H    -0.985304     0.695545    -4.700479
 H    -0.847722     2.294818    -3.806148
 C     1.014529     1.185837    -3.990917
 H     1.509077     0.443076    -4.622961
 H     1.642386     2.038890    -3.721378
 H     0.290627     1.757383    -1.629769
Rh     0.161761     0.287584    -2.213404
 C    -2.003568     1.636853     0.206320
 O    -3.119237    -0.073375    -1.631672
 O    -1.584899    -1.117792     0.156823
 C     1.892384    -1.860921    -0.062600
 O     3.342253     0.187092    -1.298357
 O     1.757380     0.635471     0.717167
 P     1.816777    -0.160873    -0.759518
 P    -1.651336     0.184759    -0.888779
 C    -0.028814    -1.470801    -2.965782
 O    -0.176428    -2.525034    -3.388711
 H    -1.396259     1.475979     1.109094
 H    -1.527474     2.469132    -0.330586
 C    -3.428267     1.939441     0.550429
 C    -3.965571     1.518777     1.771431
 H    -3.329539     0.978499     2.475574
 C    -4.236964     2.662361    -0.352848
 C    -3.693750     3.149577    -1.663497
 H    -3.350770     2.310611    -2.288496
 H    -2.832822     3.823259    -1.519968
 H    -4.458322     3.701527    -2.226486
 C    -5.293731     1.773433     2.101430
 H    -5.692745     1.427885     3.057713
 C    -5.566873     2.917471    -0.000804
 H    -6.197662     3.476953    -0.696860
 C    -6.100714     2.473033     1.207819
 H    -7.144703     2.682532     1.452658
 C    -4.032589    -1.052642    -1.347027
 C    -5.257349    -0.704562    -0.777595
 H    -5.460304     0.339929    -0.540037
 C    -3.751133    -2.385245    -1.656162
 H    -2.792290    -2.643361    -2.108250
 C    -6.200146    -1.692406    -0.504241
 H    -7.164131    -1.444460    -0.056649
 C    -4.688559    -3.375926    -1.376480
 H    -4.490830    -4.425001    -1.603033
 C    -5.902849    -3.017268    -0.801403
 F    -6.801739    -3.964312    -0.533585
 C    -1.940173    -1.204779     1.475170
 C    -3.146217    -1.797485     1.850551
 H    -3.831004    -2.160302     1.085052
 C    -1.042719    -0.758294     2.447642
 H    -0.088797    -0.332714     2.129150
 C    -3.468390    -1.910630     3.199646
 H    -4.407739    -2.365443     3.518714
 C    -1.365198    -0.862894     3.798677
 H    -0.682229    -0.518494     4.577476
 C    -2.580770    -1.433465     4.157941
 F    -2.895593    -1.536421     5.447597
 H     0.922326    -1.953672     0.453051
 H     1.826719    -2.513352    -0.945308
 C     3.042753    -2.218504     0.827184
 C     2.987094    -1.907282     2.189804
 H     2.081874    -1.445293     2.589825
 C     4.194803    -2.838632     0.301663
 C     4.275433    -3.241846    -1.142196
 H     4.045140    -2.405877    -1.818739
 H     3.562667    -4.051972    -1.371400
 H     5.281791    -3.603282    -1.392052
 C     4.064415    -2.165109     3.031515
 H     4.003364    -1.911097     4.092306
 C     5.269512    -3.085972     1.160687
 H     6.171300    -3.552560     0.755754
 C     5.216767    -2.748206     2.510585
 H     6.075166    -2.948350     3.156001
 C     4.584089     0.164900    -0.710142
 C     4.813888     0.473854     0.631451
 H     3.984381     0.714196     1.292182
 C     5.653711    -0.143156    -1.551757
 H     5.451079    -0.356894    -2.602503
 C     6.110754     0.432912     1.133893
 H     6.310484     0.649660     2.184334
 C     6.951189    -0.181157    -1.050811
 H     7.800789    -0.426191    -1.690559
 C     7.163793     0.099820     0.292788
 F     8.403650     0.053028     0.782714
 C     1.640370     1.989266     0.867446
 C     1.024335     2.450393     2.032759
 H     0.662454     1.729420     2.767364
 C     2.133767     2.901123    -0.069774
 H     2.637121     2.544618    -0.968952
 C     0.876111     3.815688     2.255529
 H     0.393540     4.194728     3.157907
 C     1.982301     4.268082     0.149873
 H     2.356733     4.997597    -0.570212
 C     1.350884     4.711274     1.304578
 F     1.205937     6.019365     1.510550
