 100
scf done:    -2910.754763
 C    -0.844284    -2.518642    -2.798219
 H    -1.335836    -3.465916    -2.554557
 H    -1.444206    -1.849015    -3.421040
 C     0.567716    -2.460228    -2.870839
 H     1.153466    -3.366870    -2.690819
 H     1.055866    -1.733775    -3.524870
 H    -0.182129    -0.191159    -1.985062
Rh    -0.087596    -1.485228    -1.058026
 C    -3.212463    -0.158469    -1.658909
 C    -3.133882    -1.455108     0.855695
 C    -1.740109     1.088063     0.638445
 C     1.674998    -0.315830     1.696690
 C     3.402698    -1.157833    -0.451700
 C     2.011139     1.351451    -0.706483
 P     1.755190    -0.380618    -0.172859
 P    -2.023815    -0.486882    -0.256600
 C     0.130991    -2.985796     0.092717
 O     0.334632    -3.855673     0.818216
 H    -3.298168    -1.156357    -2.113886
 H    -2.659598     0.478597    -2.359225
 C    -4.567012     0.387246    -1.338998
 C    -4.798254     1.766531    -1.256773
 H    -3.968897     2.451316    -1.439633
 C    -5.640261    -0.481653    -1.105098
 H    -5.476844    -1.560973    -1.165757
 C    -6.062198     2.261094    -0.947513
 H    -6.223028     3.341033    -0.893869
 C    -6.905585     0.010439    -0.791162
 H    -7.728471    -0.686595    -0.613483
 C    -7.122407     1.385290    -0.711341
 H    -8.115562     1.773759    -0.472249
 C    -3.028945    -2.846665     0.792955
 H    -2.254834    -3.272503     0.152377
 C    -4.168961    -0.903118     1.648840
 O    -4.296597     0.430231     1.650484
 C    -5.299440     1.044344     2.407445
 H    -6.302973     0.715147     2.091090
 H    -5.206354     2.120936     2.219862
 H    -5.170370     0.851573     3.487157
 C    -3.883576    -3.689327     1.501184
 H    -3.770221    -4.772417     1.426793
 C    -5.012283    -1.745586     2.383927
 H    -5.799930    -1.320927     3.006117
 C    -4.868331    -3.128813     2.306816
 H    -5.542002    -3.768754     2.882257
 C    -1.594459     1.072054     2.028944
 H    -1.732727     0.127004     2.560988
 C    -1.515391     2.301750    -0.038075
 O    -1.573402     2.265538    -1.384943
 C    -1.157389     3.377359    -2.132332
 H    -1.833410     4.239879    -1.994129
 H    -1.189111     3.069291    -3.184952
 H    -0.127711     3.670146    -1.874052
 C    -1.286866     2.224704     2.747643
 H    -1.180960     2.180006     3.833593
 C    -1.249282     3.472583     0.681181
 H    -1.098966     4.414458     0.154028
 C    -1.135994     3.432073     2.068113
 H    -0.916611     4.351519     2.616368
 H     1.328704    -1.331804     1.939653
 H     0.831811     0.350981     1.929841
 C     2.889780     0.009546     2.509719
 C     3.065720     1.263826     3.107465
 H     2.293784     2.027970     2.993145
 C     3.876079    -0.964887     2.716979
 H     3.748104    -1.957523     2.278410
 C     4.201810     1.546997     3.862376
 H     4.314381     2.532252     4.322023
 C     5.014537    -0.684465     3.468348
 H     5.770495    -1.460455     3.611988
 C     5.186069     0.575718     4.040708
 H     6.076479     0.795384     4.634952
 C     3.444268    -2.498487    -0.830781
 H     2.496142    -3.007641    -1.008435
 C     4.626071    -0.480522    -0.246829
 O     4.551600     0.806741     0.121615
 C     5.710824     1.520221     0.440951
 H     6.261764     1.044205     1.269238
 H     5.377195     2.515039     0.761243
 H     6.378014     1.627664    -0.432546
 C     4.650262    -3.180560    -0.993533
 H     4.649629    -4.233080    -1.283525
 C     5.838831    -1.155140    -0.423334
 H     6.783382    -0.635213    -0.262558
 C     5.845407    -2.500088    -0.790494
 H     6.801680    -3.013917    -0.917842
 C     1.778159     2.444893     0.118683
 H     1.378238     2.288661     1.119011
 C     2.484277     1.584801    -2.015858
 O     2.673638     0.489106    -2.771338
 C     3.216101     0.609451    -4.053716
 H     2.565718     1.203378    -4.719661
 H     3.298651    -0.409380    -4.452303
 H     4.220199     1.068175    -4.029512
 C     2.050060     3.748433    -0.304811
 H     1.866506     4.587047     0.370069
 C     2.754325     2.884819    -2.449138
 H     3.135478     3.064398    -3.454698
 C     2.548882     3.962475    -1.583864
 H     2.775701     4.975023    -1.926927
