  96
scf done:    -2458.766347
 C    -0.058456    -1.444953    -2.778263
 H     0.760408    -1.125102    -3.430708
 H    -0.082411    -2.519877    -2.578054
 C    -1.261463    -0.694731    -2.761215
 H    -1.351182     0.193050    -3.395221
 H    -2.208815    -1.202994    -2.563706
 H    -1.011744    -1.584850    -0.455772
Rh    -0.174811    -0.334034    -0.926041
 C     0.914428    -2.850928     1.267484
 O     2.843018    -1.757680    -0.129083
 O     1.776630    -0.314580     1.745246
 C    -0.751652     1.910855     1.785263
 O    -2.853307     1.412817     0.322602
 O    -1.927353    -0.524652     1.761714
 P    -1.444057     0.618207     0.673702
 P     1.371754    -1.263895     0.449935
 C     0.728919     1.192537    -1.681702
 O     1.234925     2.049929    -2.248527
 H     0.147834    -2.590599     2.012985
 H     1.804048    -3.243006     1.782996
 C     0.387621    -3.848176     0.280648
 C     1.252231    -4.506186    -0.602205
 H     2.325264    -4.311343    -0.539292
 C    -0.987263    -4.089407     0.179817
 H    -1.669899    -3.573967     0.859657
 C     0.752512    -5.380604    -1.564713
 H     1.440386    -5.884239    -2.248377
 C    -1.488109    -4.963198    -0.782628
 H    -2.565125    -5.136380    -0.848381
 C    -0.619781    -5.609719    -1.661034
 H    -1.011330    -6.292391    -2.418899
 C     3.370157    -1.172152    -1.311320
 H     4.116176    -1.885571    -1.695710
 H     2.565293    -1.087649    -2.061380
 C     3.993760     0.185217    -1.064072
 H     3.237840     0.840098    -0.598510
 H     4.811087     0.084666    -0.330535
 C     4.512884     0.841699    -2.334278
 H     3.700954     0.878337    -3.080800
 H     5.306485     0.213660    -2.776884
 C     5.035440     2.248725    -2.093623
 H     4.229207     2.903032    -1.726443
 H     5.840977     2.254319    -1.341129
 H     5.435713     2.697364    -3.015203
 C     2.548837    -0.709600     2.869870
 H     2.174172    -0.104043     3.712730
 H     2.354407    -1.763846     3.124640
 C     4.037379    -0.483607     2.688313
 H     4.543667    -0.876667     3.588302
 H     4.385607    -1.095740     1.840385
 C     4.424606     0.973132     2.479961
 H     4.054107     1.573128     3.330351
 H     3.902835     1.356130     1.589525
 C     5.921772     1.178007     2.319744
 H     6.473876     0.835233     3.209720
 H     6.310614     0.613367     1.456846
 H     6.170901     2.238126     2.160564
 H    -0.087079     1.368883     2.472615
 H    -1.585662     2.349095     2.355447
 C     0.010368     2.958637     1.032469
 C    -0.646656     3.886756     0.214596
 H    -1.735852     3.857437     0.140205
 C     1.407250     2.994986     1.100323
 H     1.923580     2.255688     1.714250
 C     0.078193     4.829948    -0.509978
 H    -0.449001     5.543965    -1.147462
 C     2.132148     3.942916     0.382328
 H     3.222995     3.955739     0.451324
 C     1.469938     4.862798    -0.428515
 H     2.036870     5.601049    -1.000433
 C    -3.588006     1.074450    -0.845666
 H    -2.952998     1.240727    -1.731827
 H    -3.849742     0.001636    -0.831858
 C    -4.837722     1.923696    -0.903884
 H    -5.397625     1.629941    -1.809153
 H    -5.488166     1.675757    -0.046158
 C    -4.567529     3.421324    -0.922855
 H    -3.882723     3.654272    -1.757629
 H    -4.025293     3.690647    -0.001909
 C    -5.831715     4.256410    -1.040363
 H    -6.378138     4.030360    -1.970329
 H    -6.518577     4.060541    -0.201113
 H    -5.607556     5.333825    -1.040453
 C    -2.907666    -0.327666     2.766054
 H    -2.606788    -0.975781     3.605975
 H    -2.900354     0.712211     3.135170
 C    -4.297225    -0.703974     2.283441
 H    -4.980320    -0.664663     3.150504
 H    -4.649768     0.066164     1.578722
 C    -4.365299    -2.073349     1.622658
 H    -4.030309    -2.844341     2.339741
 H    -3.637864    -2.098486     0.794492
 C    -5.751957    -2.415489     1.103773
 H    -6.497749    -2.424773     1.915074
 H    -6.089096    -1.677123     0.357938
 H    -5.772065    -3.404936     0.622312
