  96
scf done:    -3901.674001
 C     1.991694     3.964783    -0.655597
 H     2.598879     4.416778     0.133086
 H     2.539187     3.729822    -1.571194
 C     0.602578     4.177769    -0.694618
 H     0.120116     4.801596     0.062911
 H     0.061037     4.110841    -1.641111
 H     0.979210     1.760826    -1.463264
Rh     0.986966     2.168236     0.068915
 O     2.734796    -0.600413    -0.865398
 O     4.139948     1.322954    -0.134228
 O     3.004274    -0.066847     1.591977
 O    -1.574560     0.552243     1.470397
 O    -2.317209     2.300349    -0.218262
 O    -1.341361     0.078977    -1.041352
 P    -1.063965     1.259045     0.056616
 P     2.658010     0.692543     0.160238
 C     1.043057     2.711548     1.920200
 O     1.088799     3.043371     3.012025
 C     1.712136    -1.120860    -1.612029
 C     1.415739    -0.571868    -2.858845
 H     1.977321     0.294876    -3.209959
 C     1.017986    -2.236779    -1.148460
 H     1.286830    -2.668182    -0.182659
 C     0.410762    -1.131852    -3.640237
 H     0.161586    -0.710294    -4.614995
 C     0.009429    -2.796353    -1.926689
 H    -0.550342    -3.663119    -1.572318
 C    -0.292350    -2.238502    -3.167586
Cl    -1.558439    -2.917992    -4.131668
 C     5.308012     0.584983    -0.124507
 C     5.936426     0.324360     1.091780
 H     5.471463     0.684108     2.009903
 C     5.853093     0.161478    -1.344465
 C     5.174524     0.459577    -2.646389
 H     4.414786    -0.304694    -2.872877
 H     4.660520     1.430597    -2.612419
 H     5.899019     0.471030    -3.472418
 C     7.127251    -0.395842     1.111895
 H     7.617613    -0.606146     2.064939
 C     7.055226    -0.553411    -1.293142
 H     7.504066    -0.889419    -2.231973
 C     7.686704    -0.839413    -0.084902
 H     8.622863    -1.402198    -0.079749
 C     2.759004    -1.378608     1.912147
 C     3.524902    -2.395225     1.341904
 H     4.310193    -2.132138     0.632383
 C     1.754481    -1.650093     2.853696
 C     0.990761    -0.532828     3.494334
 H     0.304099    -0.916867     4.260314
 H     1.674088     0.190434     3.964584
 H     0.394375     0.026530     2.758867
 C     3.263590    -3.721921     1.676228
 H     3.856978    -4.519578     1.223810
 C     1.514499    -2.992206     3.168745
 H     0.730171    -3.226200     3.893638
 C     2.248720    -4.022796     2.583106
 H     2.036292    -5.061153     2.847547
 C    -2.215532    -0.647948     1.633278
 C    -1.505378    -1.836156     1.467115
 H    -0.455203    -1.799918     1.180373
 C    -3.557448    -0.671752     2.009338
 H    -4.099314     0.265790     2.139855
 C    -2.141436    -3.058735     1.654640
 H    -1.593405    -3.993374     1.524927
 C    -4.196862    -1.893757     2.197311
 H    -5.249287    -1.928048     2.482488
 C    -3.489532    -3.081766     2.012377
Cl    -4.291068    -4.601706     2.234978
 C    -3.550986     2.323292     0.396455
 C    -4.656632     1.800845    -0.270577
 H    -4.525376     1.361939    -1.259567
 C    -3.666680     2.925677     1.658947
 C    -2.471434     3.506333     2.348071
 H    -1.863629     2.713759     2.812016
 H    -1.821547     4.033546     1.634278
 H    -2.772576     4.208028     3.137392
 C    -5.907968     1.835793     0.338946
 H    -6.771962     1.417521    -0.181966
 C    -4.936626     2.945261     2.246432
 H    -5.049919     3.405475     3.231711
 C    -6.047968     2.400248     1.605298
 H    -7.025679     2.429096     2.091482
 C    -2.442255    -0.144987    -1.839224
 C    -3.300578    -1.194487    -1.523540
 H    -3.100526    -1.796431    -0.638280
 C    -2.628012     0.644172    -2.983873
 C    -1.693389     1.765567    -3.314850
 H    -1.915761     2.652494    -2.700123
 H    -0.650603     1.488462    -3.104122
 H    -1.781109     2.050608    -4.372132
 C    -4.395496    -1.458729    -2.340138
 H    -5.068062    -2.281730    -2.089424
 C    -3.736229     0.351865    -3.787134
 H    -3.903006     0.953624    -4.684574
 C    -4.619291    -0.678775    -3.472389
 H    -5.474404    -0.880391    -4.121210
