 100
scf done:    -2910.902847
 C     0.733542    -3.911124     0.700119
 H     1.506124    -4.343971     0.058196
 H     1.014568    -3.837480     1.753931
 C    -0.631254    -4.009943     0.342995
 H    -0.917213    -4.529303    -0.576188
 H    -1.405191    -4.002957     1.114895
 H    -0.379009    -1.741336     1.466286
Rh     0.058797    -1.990078    -0.043137
 C     1.429549     0.464570     2.047452
 O     3.213336    -0.888091     0.653812
 O     1.679932     0.734775    -0.708884
 C    -1.778417     0.166496    -2.129079
 O    -3.234142    -1.157055    -0.367655
 O    -1.642667     0.670014     0.590826
 P    -1.662752    -0.611872    -0.468556
 P     1.615818    -0.443856     0.465613
 C     0.550092    -2.372171    -1.860081
 O     0.812956    -2.605132    -2.950458
 H     1.402182    -0.351236     2.788168
 H     0.405682     0.865695     1.991657
 C     2.433939     1.514106     2.417906
 C     2.108690     2.871770     2.329827
 H     1.107097     3.163390     2.006557
 C     3.716906     1.159581     2.853350
 H     3.983680     0.103649     2.926142
 C     3.047749     3.853029     2.635599
 H     2.777440     4.907439     2.545207
 C     4.654131     2.139226     3.170224
 H     5.650608     1.844789     3.509248
 C     4.325636     3.489909     3.056340
 H     5.063541     4.258296     3.299201
 C     3.782362    -1.845988    -0.145238
 C     3.755078    -1.730867    -1.532693
 H     3.267253    -0.866049    -1.988134
 C     4.402838    -2.932422     0.470189
 H     4.402275    -2.999369     1.559248
 C     4.334705    -2.718858    -2.338286
 C     4.255131    -2.605359    -3.832094
 H     3.211273    -2.706841    -4.169675
 H     4.613938    -1.623755    -4.178109
 H     4.851421    -3.382970    -4.329037
 C     4.993923    -3.907009    -0.326261
 H     5.482759    -4.764044     0.143225
 C     4.956485    -3.806187    -1.717576
 H     5.416310    -4.584544    -2.331642
 C     2.385191     1.911393    -0.758754
 C     3.756612     1.969759    -0.525464
 H     4.293716     1.062484    -0.248431
 C     1.674091     3.056726    -1.119690
 H     0.604579     2.975552    -1.320316
 C     4.433614     3.191331    -0.610466
 C     5.904693     3.247844    -0.322271
 H     6.095453     3.029481     0.740450
 H     6.456147     2.500301    -0.912892
 H     6.323091     4.238850    -0.546576
 C     2.346278     4.270456    -1.212808
 H     1.796315     5.172491    -1.492131
 C     3.713833     4.340949    -0.952578
 H     4.233560     5.299730    -1.022622
 H    -1.760701    -0.699964    -2.811108
 H    -0.805279     0.670968    -2.243118
 C    -2.922281     1.084209    -2.443197
 C    -2.720813     2.465709    -2.529475
 H    -1.717784     2.872294    -2.380174
 C    -4.212783     0.580727    -2.648082
 H    -4.383576    -0.495263    -2.583357
 C    -3.784048     3.328300    -2.781241
 H    -3.607456     4.405092    -2.828839
 C    -5.275884     1.440993    -2.909344
 H    -6.276834     1.031232    -3.066368
 C    -5.067114     2.818526    -2.971057
 H    -5.902728     3.493570    -3.171004
 C    -3.628258    -2.051657     0.593313
 C    -3.325936    -1.848063     1.937376
 H    -2.759499    -0.961936     2.230614
 C    -4.353288    -3.170318     0.184395
 H    -4.570305    -3.305607    -0.876375
 C    -3.725641    -2.781249     2.901172
 C    -3.360342    -2.568306     4.341283
 H    -2.266379    -2.577430     4.472758
 H    -3.720503    -1.593098     4.704404
 H    -3.785004    -3.350074     4.986003
 C    -4.765120    -4.090796     1.141613
 H    -5.330753    -4.973391     0.833679
 C    -4.449119    -3.903905     2.487821
 H    -4.768637    -4.640733     3.228981
 C    -2.416047     1.804575     0.613677
 C    -3.806883     1.752522     0.644924
 H    -4.309881     0.786232     0.603694
 C    -1.745425     3.026609     0.667827
 H    -0.654815     3.034747     0.647581
 C    -4.553493     2.934731     0.691650
 C    -6.051893     2.870673     0.668539
 H    -6.404448     2.582423    -0.335077
 H    -6.432328     2.118642     1.376058
 H    -6.502955     3.840586     0.920390
 C    -2.485262     4.202514     0.731585
 H    -1.967920     5.164124     0.774154
 C    -3.878208     4.159377     0.736017
 H    -4.452342     5.088336     0.777891
