 100
scf done:    -2162.830851
 C    -1.086312    -2.872019    -1.383421
 H    -1.837572    -3.422489    -0.807503
 H    -1.446180    -2.520156    -2.355135
 C     0.287782    -3.186152    -1.225505
 H     0.590257    -3.971874    -0.526198
 H     0.956391    -3.069368    -2.082123
 H     0.229445    -0.702605    -1.689273
Rh    -0.150349    -1.295681    -0.257636
 C    -1.839015     1.357966    -1.866377
 C    -3.559143    -0.555343    -0.603807
 C    -2.199659     1.490796     1.003678
 C     1.867016     0.613872     2.031441
 C     3.399427    -1.060610     0.307241
 C     1.984532     1.416010    -0.736441
 P     1.786699    -0.115083     0.327670
 P    -1.892235     0.260304    -0.375023
 C    -0.554104    -2.137168     1.394062
 O    -0.821925    -2.729674     2.344446
 H    -2.628998     2.125147    -1.794515
 H    -0.876874     1.892044    -1.815464
 C    -1.927107     0.619000    -3.194653
 H    -2.909491     0.126091    -3.287140
 H    -1.176930    -0.188982    -3.194231
 C    -1.707867     1.535032    -4.388703
 H    -2.450385     2.349000    -4.416045
 H    -0.709575     1.999982    -4.354727
 H    -1.783788     0.982899    -5.337779
 H    -3.364752    -1.207189    -1.475196
 C    -4.724687     0.370054    -0.957785
 H    -4.471300     1.022410    -1.807216
 H    -4.939373     1.037693    -0.104083
 C    -5.981702    -0.432023    -1.290780
 H    -6.816249     0.252105    -1.516090
 H    -5.799136    -1.012657    -2.213151
 C    -6.362290    -1.386240    -0.165165
 H    -7.241140    -1.986607    -0.451322
 H    -6.663593    -0.798019     0.720937
 C    -5.194130    -2.289649     0.211997
 H    -4.962143    -2.963786    -0.632277
 H    -5.465431    -2.937510     1.061221
 C    -3.950690    -1.474906     0.552982
 H    -4.163609    -0.866828     1.449666
 H    -3.112626    -2.137692     0.810730
 H    -3.262409     1.786927     0.928174
 C    -1.353734     2.760152     0.870718
 H    -1.556916     3.266978    -0.084079
 H    -0.285149     2.482924     0.852417
 C    -1.602040     3.731547     2.021341
 H    -0.955591     4.617352     1.908268
 H    -2.642960     4.098120     1.962165
 C    -1.379669     3.076234     3.378316
 H    -1.606261     3.785881     4.190460
 H    -0.310863     2.816628     3.485364
 C    -2.218874     1.812591     3.520056
 H    -3.289218     2.087132     3.541742
 H    -2.007976     1.314682     4.480650
 C    -1.967743     0.842427     2.370761
 H    -0.926960     0.482447     2.408370
 H    -2.590600    -0.055594     2.488994
 H     2.777639     1.226351     2.124047
 H     1.019544     1.314240     2.097507
 C     1.803418    -0.377896     3.183638
 H     2.683428    -1.042033     3.152171
 H     0.929365    -1.034749     3.067662
 C     1.740961     0.312777     4.537990
 H     2.611934     0.968741     4.697444
 H     0.837474     0.937892     4.623109
 H     1.716801    -0.417617     5.360738
 H     3.241372    -1.743897     1.164574
 C     4.673885    -0.259941     0.581013
 H     4.566130     0.370038     1.477653
 H     4.860381     0.425509    -0.263901
 C     5.879502    -1.183703     0.743957
 H     6.791106    -0.587428     0.913919
 H     5.738188    -1.800184     1.650331
 C     6.055368    -2.098240    -0.462601
 H     6.904957    -2.782594    -0.305175
 H     6.310458    -1.484778    -1.346158
 C     4.779637    -2.881128    -0.750897
 H     4.584059    -3.579250     0.083442
 H     4.904397    -3.503761    -1.651785
 C     3.578469    -1.956373    -0.918056
 H     3.723644    -1.336475    -1.818098
 H     2.657740    -2.530298    -1.079213
 H     0.928887     1.726666    -0.829818
 C     2.467845     1.092687    -2.150986
 H     1.899485     0.238692    -2.551696
 H     3.527480     0.786384    -2.114548
 C     2.337278     2.302629    -3.069518
 H     2.706164     2.053560    -4.077759
 H     1.267110     2.553490    -3.184471
 C     3.079821     3.509194    -2.509227
 H     2.943523     4.387056    -3.161596
 H     4.163971     3.294094    -2.500548
 C     2.622080     3.823882    -1.090559
 H     1.564508     4.145490    -1.113914
 H     3.193634     4.671596    -0.678569
 C     2.746937     2.614151    -0.165914
 H     3.812395     2.361353    -0.035199
 H     2.365171     2.883875     0.829805
