  88
scf done:    -2753.758740
 C    -0.952226    -3.729583     1.786650
 H    -1.482617    -3.739639     2.743375
 H    -1.492551    -4.208290     0.965493
 C     0.461829    -3.699563     1.767200
 H     1.017365    -3.686213     2.709665
 H     1.003880    -4.140182     0.926023
 H    -0.314488    -2.328741    -0.252167
Rh    -0.290870    -1.740297     1.225661
 C    -3.648514    -1.742969     0.174182
 O    -2.806500     0.529367     1.189837
 O    -1.973168    -0.193612    -1.181623
 C     2.669085     0.071227     1.781378
 O     2.711091    -1.595487    -0.254827
 O     1.283232     0.551711    -0.570369
 P     1.559835    -0.672794     0.518439
 P    -2.116820    -0.749513     0.375957
 C    -0.284305    -1.069387     3.029684
 O    -0.261138    -0.694159     4.110244
 H    -3.888294    -2.107886     1.184957
 H    -3.332440    -2.614730    -0.419182
 C    -4.783939    -1.008028    -0.462872
 C    -4.917334    -0.980355    -1.856266
 H    -4.213777    -1.545334    -2.472358
 C    -5.681543    -0.264423     0.313158
 H    -5.580146    -0.269252     1.400852
 C    -5.917395    -0.222708    -2.459983
 H    -6.001371    -0.205987    -3.549072
 C    -6.683176     0.492975    -0.289613
 H    -7.374429     1.069097     0.330327
 C    -6.802095     0.519214    -1.678926
 H    -7.584573     1.116948    -2.152207
 C    -2.084331     1.424075     1.928459
 C    -2.574075     1.772847     3.186247
 H    -3.501146     1.315242     3.536165
 C    -0.899202     1.983001     1.449044
 H    -0.527685     1.704640     0.462477
 C    -1.869401     2.682658     3.970293
 H    -2.252147     2.951188     4.957610
 C    -0.200183     2.888376     2.244974
 H     0.725849     3.327986     1.864868
 C    -0.677498     3.239840     3.507008
 H    -0.124620     3.948697     4.126929
 C    -2.067723     1.066125    -1.701307
 C    -3.131673     1.923896    -1.408395
 H    -3.921894     1.602499    -0.730899
 C    -1.066552     1.462255    -2.590205
 H    -0.248016     0.773746    -2.800101
 C    -3.167271     3.186310    -1.996706
 H    -3.998523     3.855650    -1.762478
 C    -1.120863     2.722670    -3.178255
 H    -0.327497     3.026496    -3.865106
 C    -2.167657     3.594106    -2.879028
 H    -2.206780     4.585671    -3.335369
 H     2.838445    -0.762983     2.482180
 H     2.023070     0.793784     2.305964
 C     3.959361     0.698080     1.346438
 C     4.087198     2.089994     1.284826
 H     3.242358     2.719571     1.574238
 C     5.054054    -0.093393     0.978872
 H     4.967124    -1.180598     1.024282
 C     5.266324     2.679136     0.838359
 H     5.340203     3.767433     0.782551
 C     6.235942     0.494246     0.535940
 H     7.079756    -0.137780     0.248315
 C     6.344457     1.881968     0.457689
 H     7.270139     2.342109     0.104080
 C     2.426631    -2.515177    -1.225156
 C     3.120939    -3.724690    -1.186577
 H     3.830376    -3.897923    -0.375282
 C     1.506739    -2.257702    -2.244161
 H     0.966384    -1.310474    -2.262865
 C     2.893558    -4.680508    -2.172772
 H     3.438105    -5.627168    -2.140155
 C     1.283696    -3.225993    -3.221339
 H     0.559958    -3.024461    -4.014540
 C     1.972477    -4.437085    -3.192238
 H     1.793243    -5.190304    -3.962353
 C     2.147841     1.429317    -1.178735
 C     3.307370     1.009278    -1.831787
 H     3.584124    -0.043567    -1.830778
 C     1.782636     2.776329    -1.180157
 H     0.852736     3.077574    -0.696301
 C     4.119465     1.957052    -2.449339
 H     5.037931     1.628351    -2.940706
 C     2.598392     3.711111    -1.811760
 H     2.307068     4.764264    -1.810047
 C     3.774410     3.307725    -2.442229
 H     4.417955     4.042501    -2.930697
