  90
scf done:    -4369.418260
 C     1.121903    -3.194201    -1.567154
 H     1.759555    -3.110360    -2.452167
 H     1.628224    -3.605519    -0.689186
 C    -0.272705    -3.401719    -1.705435
 H    -0.711013    -3.491133    -2.704747
 H    -0.805212    -3.959545    -0.930125
 H    -0.012575    -1.940640     0.356842
Rh     0.097265    -1.353848    -1.118532
 C     1.998552    -0.125491     1.648192
 C     3.476065    -0.252371    -0.863090
 C     1.604421     1.836213    -0.472823
 C    -2.438426     1.151792    -1.376832
 C    -3.311035    -1.268842    -0.058260
 C    -1.509513     0.464848     1.307824
 P    -1.796639    -0.275965    -0.346764
 P     1.777408     0.015031    -0.219254
 C     0.054393    -0.770340    -2.933891
 O    -0.046860    -0.457544    -4.034329
 H     2.026370     0.889956     2.061825
 H     1.067401    -0.581275     2.003031
 C     3.208263    -0.890317     2.095317
 C     4.451366    -0.246597     2.109468
 H     4.506592     0.806736     1.821544
 C     3.134138    -2.250149     2.456794
 C     1.823353    -2.981680     2.497702
 H     1.279849    -2.905855     1.543136
 H     1.157351    -2.563218     3.270756
 H     1.972755    -4.045410     2.727703
 C     5.618633    -0.922185     2.446230
 H     6.577102    -0.398702     2.435534
 C     4.318106    -2.917258     2.793991
 H     4.264705    -3.973640     3.071547
 C     5.551686    -2.271819     2.783342
 H     6.458751    -2.822596     3.043192
 C     3.992464    -1.555182    -0.825158
 H     3.373152    -2.371221    -0.454017
 C     4.287786     0.774064    -1.356334
 H     3.912191     1.797564    -1.407841
 C     5.292990    -1.824587    -1.229735
 H     5.696065    -2.836720    -1.175789
 C     5.588742     0.514822    -1.783155
 H     6.219744     1.317182    -2.168784
 C     6.088427    -0.782444    -1.705913
Cl     7.712829    -1.106824    -2.210368
 C     2.117908     2.799796     0.405007
 H     2.675689     2.502179     1.294764
 C     0.935119     2.283915    -1.617347
 H     0.540090     1.554745    -2.325447
 C     1.933563     4.160128     0.175847
 H     2.328046     4.902591     0.871551
 C     0.749364     3.640488    -1.870179
 H     0.221108     3.975741    -2.764192
 C     1.238219     4.575924    -0.959649
Cl     0.990597     6.262644    -1.242959
 H    -1.682717     1.944702    -1.276577
 H    -2.364324     0.791568    -2.412230
 C    -3.812243     1.657614    -1.060131
 C    -3.993589     2.607945    -0.047153
 H    -3.120713     3.010952     0.469188
 C    -4.942460     1.159245    -1.743315
 C    -4.811255     0.170176    -2.864471
 H    -4.345278    -0.767582    -2.526796
 H    -4.190534     0.565378    -3.685145
 H    -5.795560    -0.079743    -3.282569
 C    -5.262875     3.041330     0.324363
 H    -5.375442     3.779256     1.121978
 C    -6.210297     1.609260    -1.360258
 H    -7.086222     1.219208    -1.885562
 C    -6.380488     2.531337    -0.331228
 H    -7.384388     2.859127    -0.051230
 C    -3.452922    -2.486935    -0.729166
 H    -2.629072    -2.837637    -1.353206
 C    -4.361382    -0.813911     0.751510
 H    -4.275890     0.135564     1.283791
 C    -4.618346    -3.239466    -0.610122
 H    -4.729828    -4.189599    -1.134692
 C    -5.529699    -1.556275     0.881365
 H    -6.351318    -1.199204     1.503875
 C    -5.652442    -2.764493     0.194373
Cl    -7.108810    -3.687086     0.347957
 C    -1.015114     1.763210     1.469196
 H    -0.898577     2.425912     0.610756
 C    -1.606129    -0.354612     2.442190
 H    -1.972317    -1.379206     2.340260
 C    -0.631042     2.238678     2.720890
 H    -0.241596     3.251657     2.833794
 C    -1.227398     0.105914     3.698148
 H    -1.302408    -0.537828     4.576022
 C    -0.735799     1.405341     3.831364
Cl    -0.239622     1.980512     5.385614
