 104
scf done:    -2315.120153
 C     0.533032     0.235995    -3.533526
 H     0.924933     1.202335    -3.867685
 H     1.157684    -0.617522    -3.813986
 C    -0.870212     0.056685    -3.410375
 H    -1.540624     0.888190    -3.651342
 H    -1.305052    -0.930581    -3.589023
 H     0.150446    -1.376198    -1.573762
Rh     0.014203     0.208358    -1.444064
 C     3.425817     1.260093    -0.940664
 C     2.442341    -0.397335     1.196330
 C     2.994081    -1.523447    -1.379922
 C    -1.337465     0.100141     1.918191
 C    -3.274882     0.342817    -0.151701
 C    -1.913152    -2.172494     0.210443
 P    -1.588081    -0.355063     0.124484
 P     2.161023    -0.064551    -0.604810
 C    -0.388438     2.073162    -1.371408
 O    -0.778171     3.152394    -1.419721
 H     3.486710     1.322501    -2.038248
 H     4.400625     0.906344    -0.570385
 C     3.107484     2.601498    -0.358046
 C     3.476725     2.922255     0.955622
 H     4.012491     2.184595     1.558963
 C     2.435160     3.568509    -1.113464
 H     2.140823     3.332922    -2.138888
 C     3.190289     4.174670     1.493600
 H     3.492940     4.407443     2.517399
 C     2.144269     4.820909    -0.578460
 H     1.613712     5.557488    -1.185887
 C     2.526327     5.131068     0.725457
 H     2.308106     6.116884     1.143275
 H     1.972228     0.434201     1.746922
 H     3.520979    -0.353005     1.419742
 C     1.841424    -1.727431     1.628153
 H     0.838751    -1.819330     1.178687
 H     2.430048    -2.560006     1.203701
 C     1.732380    -1.932710     3.140366
 H     1.181803    -1.067726     3.557021
 C     0.924645    -3.189104     3.444270
 H    -0.084799    -3.132777     3.006136
 H     0.812634    -3.345288     4.528268
 H     1.417914    -4.083309     3.027769
 C     3.100117    -1.977978     3.811609
 H     3.006519    -2.124241     4.898728
 H     3.667753    -1.048969     3.651172
 H     3.702379    -2.812248     3.413407
 H     2.912700    -1.366777    -2.468011
 H     2.318994    -2.364707    -1.161486
 C     4.428092    -1.839160    -0.982587
 H     5.097663    -1.047667    -1.358055
 H     4.536829    -1.830664     0.117339
 C     4.939395    -3.189393    -1.498474
 H     4.748269    -3.223196    -2.587608
 C     6.443630    -3.306287    -1.280920
 H     6.988843    -2.491404    -1.782246
 H     6.833956    -4.260488    -1.667413
 H     6.688050    -3.258804    -0.206296
 C     4.209216    -4.363760    -0.855292
 H     4.578364    -5.323830    -1.247565
 H     3.124325    -4.331797    -1.035972
 H     4.367560    -4.368666     0.236781
 H    -0.334435    -0.253030     2.192767
 H    -2.065663    -0.457659     2.525923
 C    -1.479646     1.569538     2.173952
 C    -2.673468     2.082377     2.698960
 H    -3.483755     1.394092     2.955777
 C    -0.450783     2.467203     1.863165
 H     0.486069     2.096080     1.441547
 C    -2.840242     3.449986     2.901112
 H    -3.779522     3.827204     3.313167
 C    -0.616070     3.835950     2.062145
 H     0.199428     4.511471     1.799891
 C    -1.810549     4.332947     2.579276
 H    -1.938681     5.407099     2.732697
 H    -3.142844     1.437489    -0.178139
 H    -3.905196     0.125231     0.726072
 C    -3.920096    -0.143703    -1.439880
 H    -3.174243    -0.080184    -2.247567
 H    -4.182905    -1.214045    -1.348700
 C    -5.171702     0.631716    -1.856081
 H    -4.877141     1.692639    -1.964574
 C    -5.667055     0.142206    -3.211792
 H    -4.879946     0.220310    -3.977849
 H    -6.535931     0.723139    -3.558266
 H    -5.974512    -0.915860    -3.157804
 C    -6.277340     0.557002    -0.809054
 H    -7.175392     1.102336    -1.138622
 H    -5.964602     0.989117     0.153477
 H    -6.572941    -0.490752    -0.627415
 H    -0.945029    -2.649443     0.434756
 H    -2.128946    -2.445569    -0.834131
 C    -2.994550    -2.671529     1.154493
 H    -2.723351    -2.421587     2.194104
 H    -3.947793    -2.149023     0.955954
 C    -3.246642    -4.181492     1.078648
 H    -2.274047    -4.686896     1.232083
 C    -4.183781    -4.618743     2.198580
 H    -3.780488    -4.354737     3.188820
 H    -4.350999    -5.706834     2.182137
 H    -5.167529    -4.130128     2.098375
 C    -3.790378    -4.608563    -0.280387
 H    -3.970723    -5.694122    -0.311761
 H    -3.099494    -4.366805    -1.101581
 H    -4.749675    -4.105872    -0.491098
