  92
scf done:    -2606.276623
 C    -1.349989    -3.882568    -0.017989
 H    -0.825586    -4.751291    -0.426896
 H    -1.455579    -3.890676     1.070277
 C    -2.304515    -3.197963    -0.806771
 H    -2.513899    -3.538980    -1.824679
 H    -3.132906    -2.669099    -0.328043
 H    -1.200023    -1.415707     0.588311
Rh    -0.496716    -2.007126    -0.700093
 C     2.662445    -2.973870     0.739941
 O     2.268855    -0.409508    -0.058770
 O     1.217622    -1.355126     2.143073
 C    -0.137311     0.733955    -2.933195
 O    -2.454883     0.607982    -1.691737
 O    -0.399333     1.148611    -0.227750
 P    -0.897478     0.089265    -1.403034
 P     1.373958    -1.699616     0.518637
 C     0.237921    -2.706253    -2.330994
 O     0.643563    -3.093553    -3.331509
 H     3.404208    -2.597432     1.462960
 H     2.146492    -3.823311     1.217746
 C     3.325002    -3.395574    -0.564110
 H     3.792642    -2.515853    -1.037151
 H     2.555239    -3.748566    -1.269367
 C     4.370267    -4.480588    -0.358939
 H     5.172916    -4.138395     0.313451
 H     3.925628    -5.384072     0.087914
 H     4.834571    -4.773403    -1.312597
 C     3.508678     0.019102     0.319599
 C     4.357559     0.464147    -0.697817
 H     4.008469     0.409431    -1.731213
 C     3.929972     0.087082     1.649148
 H     3.265355    -0.245325     2.446637
 C     5.615142     0.966834    -0.385785
 H     6.265484     1.313887    -1.193849
 C     5.198594     0.587342     1.940543
 H     5.516567     0.636778     2.985720
 C     6.065257     1.034872     0.939499
 C     7.436787     1.552239     1.263789
 H     7.530325     1.803763     2.329733
 H     7.676428     2.453743     0.679751
 H     8.210827     0.801510     1.032559
 C     0.210288    -0.575555     2.653706
 C    -0.888418    -1.184411     3.254230
 H    -0.938342    -2.273971     3.288084
 C     0.297262     0.813862     2.599367
 H     1.156966     1.282893     2.119071
 C    -1.903995    -0.396649     3.790935
 H    -2.763409    -0.883021     4.260573
 C    -0.728197     1.587843     3.131483
 H    -0.659069     2.677049     3.064557
 C    -1.851014     1.000485     3.728763
 C    -2.977741     1.847652     4.245116
 H    -3.619120     1.287418     4.940536
 H    -3.615907     2.198891     3.416555
 H    -2.605703     2.741102     4.768463
 H     0.931667     0.841184    -2.675329
 H    -0.188328    -0.112240    -3.639865
 C    -0.691624     1.997357    -3.581348
 H    -0.631680     2.841150    -2.878406
 H    -1.762805     1.849212    -3.787053
 C     0.051280     2.345623    -4.861768
 H     1.118767     2.535352    -4.664807
 H    -0.008777     1.528570    -5.598917
 H    -0.365510     3.249861    -5.330665
 C    -3.512749     0.235394    -0.906865
 C    -3.451814     0.260218     0.486740
 H    -2.536941     0.567413     0.995861
 C    -4.684214    -0.169338    -1.547013
 H    -4.705992    -0.189658    -2.638158
 C    -4.565704    -0.136516     1.224733
 H    -4.499771    -0.129136     2.315832
 C    -5.787923    -0.551415    -0.793338
 H    -6.698712    -0.872714    -1.306686
 C    -5.750758    -0.547155     0.607839
 C    -6.951702    -0.953649     1.412176
 H    -6.690488    -1.120470     2.466828
 H    -7.401762    -1.880188     1.023989
 H    -7.734146    -0.177087     1.383443
 C    -0.239063     2.498812    -0.339097
 C    -1.334406     3.359345    -0.263899
 H    -2.337073     2.943400    -0.153222
 C     1.050612     3.012246    -0.474452
 H     1.893369     2.319185    -0.514204
 C    -1.129688     4.733485    -0.351753
 H    -1.992720     5.403504    -0.303303
 C     1.235627     4.389438    -0.559386
 H     2.249172     4.784390    -0.672167
 C     0.153022     5.275633    -0.503263
 C     0.363132     6.761038    -0.566332
 H    -0.498721     7.271430    -1.020409
 H     1.258312     7.017082    -1.151503
 H     0.499870     7.186086     0.442372
