 104
scf done:    -3758.001436
 C    -1.393800     2.604880     3.520950
 H    -1.647154     3.635297     3.253264
 H    -2.232714     2.030127     3.924906
 C    -0.071285     2.292790     3.943301
 H     0.677695     3.089320     4.001122
 H     0.087656     1.482820     4.660630
 H    -0.921284     0.250349     2.720376
Rh    -0.380405     1.536603     1.954268
 O    -2.127996    -0.818481     0.526681
 C    -3.663078     1.547526     0.833969
 C    -1.746508     1.113711    -1.347476
 O     1.575619     0.258846    -0.354300
 C     2.957725     0.542644     2.106156
 C     1.052563    -1.657785     1.565064
 P     1.315290     0.165749     1.314286
 P    -1.979136     0.860494     0.474178
 C     0.385926     3.127411     1.213389
 O     0.941642     4.078830     0.891865
 C    -3.008019    -1.618974    -0.146066
 C    -2.845204    -1.919500    -1.500704
 H    -2.006191    -1.501989    -2.056825
 C    -4.046271    -2.214976     0.571594
 H    -4.138141    -1.998762     1.636099
 C    -3.757288    -2.749714    -2.148315
 H    -3.645713    -2.974460    -3.210129
 C    -4.958395    -3.042852    -0.068463
 H    -5.787524    -3.488475     0.482863
 C    -4.821084    -3.292085    -1.433568
Cl    -5.991880    -4.280310    -2.244312
 H    -3.669165     1.654778     1.927462
 H    -3.580317     2.575349     0.437684
 C    -4.919405     0.862993     0.378744
 C    -5.258601     0.704823    -0.970508
 H    -4.617087     1.111333    -1.753854
 C    -5.796449     0.352983     1.343248
 H    -5.547490     0.484125     2.401042
 C    -6.415185     0.018914    -1.329748
 H    -6.658692    -0.113887    -2.386412
 C    -6.966388    -0.330624     1.002204
 C    -7.853644    -0.912582     2.063843
 H    -7.593733    -1.967560     2.257043
 H    -7.754657    -0.372239     3.016150
 H    -8.911437    -0.890272     1.763942
 C    -7.262210    -0.499699    -0.354168
 H    -8.163858    -1.042812    -0.649620
 H    -0.864823     0.496367    -1.578079
 H    -2.609807     0.696883    -1.884400
 C    -1.489841     2.536398    -1.740684
 C    -2.536921     3.446628    -1.934927
 H    -3.575405     3.123327    -1.827598
 C    -0.175953     2.977496    -1.921422
 H     0.638434     2.262653    -1.779415
 C    -2.261008     4.764505    -2.288565
 H    -3.083022     5.467289    -2.444686
 C     0.118889     4.297940    -2.274635
 C     1.542824     4.748789    -2.413550
 H     2.178049     3.955882    -2.834812
 H     1.626280     5.637946    -3.054545
 H     1.954551     5.010968    -1.424602
 C    -0.944396     5.188503    -2.454123
 H    -0.737804     6.225095    -2.733805
 C     2.744092     0.439782    -1.024079
 C     3.289248    -0.611777    -1.763902
 H     2.780907    -1.575377    -1.776640
 C     3.368002     1.691187    -1.024771
 H     2.913391     2.521407    -0.480433
 C     4.482099    -0.429348    -2.453590
 H     4.925614    -1.251744    -3.017088
 C     4.566947     1.875475    -1.710003
 H     5.070696     2.843259    -1.699805
 C     5.127346     0.806696    -2.406983
Cl     6.649176     1.009870    -3.213637
 H     3.297129     1.482902     1.645096
 H     2.631510     0.812973     3.122839
 C     4.054999    -0.476716     2.164961
 C     4.127003    -1.362730     3.246946
 H     3.394326    -1.292474     4.055829
 C     5.035480    -0.559968     1.169433
 H     5.015231     0.145682     0.338376
 C     5.136366    -2.321964     3.307407
 H     5.184940    -3.005968     4.158111
 C     6.049482    -1.519412     1.208241
 C     7.061813    -1.608750     0.103678
 H     7.042876    -0.718039    -0.539204
 H     8.081387    -1.729830     0.499703
 H     6.857859    -2.480844    -0.539432
 C     6.085559    -2.406962     2.292346
 H     6.875408    -3.161452     2.347348
 H     1.522116    -1.902101     2.530413
 H    -0.035499    -1.742623     1.689550
 C     1.519101    -2.568874     0.470244
 C     0.674053    -2.807339    -0.619181
 H    -0.311874    -2.341575    -0.637909
 C     2.773927    -3.187200     0.495137
 H     3.440332    -3.014474     1.341807
 C     1.084187    -3.634999    -1.661120
 H     0.413516    -3.817682    -2.504540
 C     3.202357    -4.019256    -0.543893
 C     4.554626    -4.670349    -0.499012
 H     5.155989    -4.399400    -1.381581
 H     5.111658    -4.366664     0.397739
 H     4.469254    -5.768756    -0.493476
 C     2.342145    -4.233075    -1.628647
 H     2.659387    -4.880881    -2.450858
