 106
scf done:    -2989.464991
 C    -0.497965     2.906139    -3.084625
 H    -1.088782     2.623833    -3.960566
 H    -0.969792     3.658575    -2.447556
 C     0.910702     2.786186    -3.111126
 H     1.410418     2.414553    -4.010088
 H     1.528209     3.441825    -2.491734
 H     0.195151     2.237055    -0.742955
Rh     0.093951     1.176374    -1.917546
 C    -1.947698     1.138960     0.938853
 O    -3.179921     0.601053    -1.462412
 O    -1.614160    -1.215045    -0.511074
 C     1.976284    -1.648191    -1.068559
 O     3.285346     0.814606    -1.125629
 O     1.718087     0.117192     0.837698
 P     1.791676     0.167588    -0.837408
 P    -1.683475     0.434202    -0.754011
 C    -0.087112    -0.062609    -3.375823
 O    -0.231479    -0.810100    -4.231771
 H    -1.311067     0.539585     1.605318
 H    -1.464533     2.123701     0.873605
 C    -3.343653     1.239863     1.467685
 C    -3.845810     0.260375     2.331030
 H    -3.206275    -0.577166     2.617303
 C    -4.159979     2.333829     1.108108
 C    -3.654446     3.409705     0.193165
 H    -3.382571     2.996642    -0.790689
 H    -2.754247     3.898692     0.600819
 H    -4.415933     4.185824     0.037637
 C    -5.146458     0.331262     2.822575
 H    -5.518362    -0.450355     3.489068
 C    -5.461125     2.393744     1.618944
 H    -6.097299     3.238852     1.342165
 C    -5.960410     1.402468     2.462166
 H    -6.983114     1.472559     2.840568
 C    -4.117975    -0.381791    -1.648234
 C    -5.286697    -0.355333    -0.893951
 H    -5.420361     0.436417    -0.156243
 C    -3.903625    -1.379962    -2.600893
 H    -2.982698    -1.382711    -3.185856
 C    -6.261144    -1.346028    -1.059025
 C    -7.512804    -1.305354    -0.231625
 H    -7.278541    -1.112539     0.826296
 H    -8.179500    -0.493773    -0.566149
 H    -8.073725    -2.248112    -0.299232
 C    -4.869799    -2.367542    -2.766131
 H    -4.708156    -3.160586    -3.500045
 C    -6.035816    -2.357169    -1.999342
 H    -6.782041    -3.144468    -2.134025
 C    -1.931206    -1.948938     0.600656
 C    -1.000942    -2.023771     1.637988
 H    -0.058438    -1.481344     1.531581
 C    -3.128538    -2.659670     0.664136
 H    -3.836178    -2.610503    -0.162697
 C    -1.269459    -2.773907     2.787554
 C    -0.284286    -2.806407     3.920329
 H    -0.443489    -1.956950     4.605704
 H    -0.381183    -3.726377     4.513937
 H     0.751922    -2.742377     3.556472
 C    -3.392926    -3.416051     1.802643
 H    -4.329755    -3.974786     1.865314
 C    -2.483490    -3.466984     2.858594
 H    -2.711908    -4.063789     3.745392
 H     1.024230    -2.042868    -0.676669
 H     1.937237    -1.787026    -2.158506
 C     3.164029    -2.314974    -0.448006
 C     3.107033    -2.723383     0.888628
 H     2.174455    -2.588960     1.440902
 C     4.353002    -2.500131    -1.182138
 C     4.441419    -2.125791    -2.633404
 H     4.130797    -1.086090    -2.810755
 H     3.794124    -2.770346    -3.251944
 H     5.469976    -2.232347    -3.002811
 C     4.214062    -3.282983     1.518209
 H     4.149431    -3.595934     2.563200
 C     5.458849    -3.054806    -0.531132
 H     6.389283    -3.183185    -1.090126
 C     5.400832    -3.439127     0.805810
 H     6.282975    -3.866656     1.288375
 C     4.535898     0.638321    -0.584075
 C     4.763206     0.292664     0.745497
 H     3.924409     0.100139     1.410850
 C     5.607202     0.883169    -1.445949
 H     5.399298     1.174872    -2.476710
 C     6.070924     0.159031     1.225541
 C     6.295317    -0.236217     2.655772
 H     5.732062     0.415411     3.341497
 H     5.949620    -1.267626     2.829610
 H     7.358599    -0.182910     2.928162
 C     6.906022     0.749829    -0.970117
 H     7.747469     0.936313    -1.641926
 C     7.140419     0.385344     0.355285
 H     8.165128     0.281916     0.720733
 C     1.539937     1.197264     1.655211
 C     1.885723     2.492857     1.276411
 H     2.335465     2.670273     0.298359
 C     1.007361     0.947779     2.922887
 H     0.769665    -0.076639     3.211997
 C     1.656254     3.568826     2.143116
 C     2.011060     4.959293     1.704140
 H     3.082938     5.036493     1.463064
 H     1.455613     5.237598     0.794351
 H     1.782799     5.700150     2.482626
 C     0.788199     2.013631     3.787373
 H     0.364208     1.825787     4.776612
 C     1.097389     3.317436     3.398993
 H     0.912063     4.148910     4.083264
