  96
scf done:    -3901.677098
 C    -2.071117     2.234923    -3.032719
 H    -2.707537     1.785110    -3.799412
 H    -2.603401     2.852906    -2.305445
 C    -0.705614     2.465262    -3.283382
 H    -0.271698     2.194790    -4.249886
 H    -0.174278     3.256571    -2.749241
 H    -0.851363     1.792066    -0.830001
Rh    -0.914313     0.712851    -1.992651
 O    -2.228272    -0.082412     0.998905
 O    -3.975794     0.107337    -0.868943
 O    -2.593941    -1.900489    -0.608830
 O     1.888663    -1.076911    -1.702146
 O     2.352810     1.312398    -1.308219
 O     1.041885     0.046361     0.479911
 P     1.091935     0.247353    -1.150938
 P    -2.396227    -0.269285    -0.643005
 C    -0.937379    -0.558126    -3.444166
 O    -0.932313    -1.325142    -4.290786
 C    -1.928900     1.084752     1.633182
 C    -2.545481     2.291947     1.294268
 H    -3.259247     2.327897     0.469215
 C    -1.006886     1.038680     2.678901
 H    -0.518928     0.092562     2.913513
 C    -2.253089     3.446291     2.016760
 H    -2.739077     4.391097     1.768337
 C    -0.711692     2.189877     3.399248
 H     0.009019     2.161351     4.217858
 C    -1.341714     3.389589     3.068364
Cl    -0.985541     4.823969     3.976871
 C    -5.016644    -0.508967    -0.198957
 C    -5.661019    -1.581220    -0.805257
 H    -5.299776    -1.927701    -1.775555
 C    -5.425242    -0.032122     1.044880
 H    -4.906959     0.809446     1.505908
 C    -6.742332    -2.205988    -0.175097
 C    -7.429296    -3.367594    -0.832659
 H    -7.824652    -3.088451    -1.821981
 H    -6.729952    -4.204292    -0.988569
 H    -8.267261    -3.736448    -0.225189
 C    -6.501522    -0.650890     1.674685
 H    -6.835904    -0.287407     2.649234
 C    -7.153784    -1.725780     1.072959
 H    -7.997352    -2.201639     1.579534
 C    -1.671259    -2.798654    -0.137348
 C    -1.681888    -3.134540     1.214673
 H    -2.393937    -2.627797     1.868741
 C    -0.787404    -3.410909    -1.024171
 H    -0.802178    -3.138422    -2.079706
 C    -0.801010    -4.101794     1.710457
 C    -0.797887    -4.440199     3.173166
 H    -0.422251    -3.594975     3.773753
 H    -1.813014    -4.663259     3.535086
 H    -0.160728    -5.310055     3.384599
 C     0.082393    -4.381803    -0.535125
 H     0.770124    -4.880542    -1.222007
 C     0.079879    -4.722680     0.817071
 H     0.768973    -5.486701     1.186188
 C     3.144204    -1.501940    -1.322695
 C     3.244286    -2.617977    -0.495345
 H     2.332798    -3.121696    -0.173758
 C     4.287759    -0.839459    -1.763621
 H     4.189922     0.019656    -2.425664
 C     4.490729    -3.035437    -0.045048
 H     4.580172    -3.884173     0.633957
 C     5.538040    -1.255972    -1.315103
 H     6.443026    -0.734273    -1.630048
 C     5.629994    -2.338155    -0.443034
Cl     7.181150    -2.809729     0.177023
 C     2.210449     2.676120    -1.297207
 C     1.539714     3.331006    -0.266847
 H     1.103750     2.751624     0.550776
 C     2.786116     3.387841    -2.349207
 H     3.300067     2.842183    -3.142102
 C     1.417521     4.726758    -0.286170
 C     0.663671     5.431352     0.801034
 H     0.938272     5.057633     1.797611
 H     0.841169     6.515394     0.778768
 H    -0.419798     5.264793     0.692231
 C     2.676467     4.773403    -2.362923
 H     3.122372     5.343202    -3.181550
 C     1.993909     5.437300    -1.344002
 H     1.908771     6.526563    -1.366803
 C     1.999548    -0.427102     1.346547
 C     3.264029     0.152338     1.444100
 H     3.517890     1.001091     0.808821
 C     1.640411    -1.508878     2.145444
 H     0.648952    -1.946680     2.023137
 C     4.215236    -0.387796     2.313849
 C     5.607279     0.169655     2.365742
 H     6.317526    -0.528805     1.893384
 H     5.677725     1.129313     1.835589
 H     5.941021     0.322696     3.403273
 C     2.577946    -2.029671     3.033874
 H     2.309877    -2.884818     3.659578
 C     3.855784    -1.483225     3.111522
 H     4.591470    -1.911669     3.797089
