 114
scf done:    -2845.817967
 C    -0.701222    -3.305403    -1.090534
 H    -0.278825    -3.544700    -2.072249
 H    -0.226341    -3.831527    -0.257105
 C    -2.058010    -2.917005    -0.986718
 H    -2.671548    -2.859872    -1.890062
 H    -2.621762    -3.125751    -0.075223
 H    -0.760182    -1.628824     0.806562
Rh    -0.787779    -1.179439    -0.724994
 C     2.556160    -2.084129    -0.517892
 C     2.082975     0.775050    -1.343308
 C     1.734699    -0.061139     1.495827
 C    -1.114620     2.022246     0.657851
 C    -3.285576     1.359405    -1.115898
 C    -3.168871     0.231444     1.587565
 P    -2.106787     0.536539     0.075276
 P     1.416490    -0.615819    -0.269525
 C    -0.823070    -0.636550    -2.542323
 O    -0.851862    -0.267474    -3.632746
 H     2.680670    -2.519837     0.483749
 H     1.940207    -2.788219    -1.090693
 C     3.890864    -1.890423    -1.167048
 C     5.045767    -1.768575    -0.385731
 H     4.958976    -1.816786     0.700642
 C     4.003875    -1.866780    -2.574256
 C     2.813695    -2.115545    -3.457970
 H     1.930977    -1.523355    -3.175622
 H     2.502441    -3.172478    -3.402248
 H     3.046353    -1.894383    -4.508560
 C     6.297070    -1.593499    -0.969159
 H     7.183499    -1.509261    -0.335562
 C     5.267469    -1.669104    -3.143895
 H     5.356432    -1.641367    -4.233456
 C     6.408524    -1.528604    -2.356549
 H     7.382792    -1.381921    -2.829073
 H     2.430848     0.290256    -2.266059
 H     1.177003     1.335901    -1.615682
 C     3.124094     1.719442    -0.825850
 C     2.751714     2.831183    -0.056350
 H     1.696941     3.013354     0.164582
 C     4.479694     1.534985    -1.115791
 H     4.779812     0.682800    -1.729115
 C     3.715655     3.709925     0.430933
 H     3.412401     4.567933     1.035657
 C     5.460914     2.411861    -0.641080
 C     6.903059     2.202382    -0.999383
 H     7.146241     1.131712    -1.051811
 H     7.126680     2.633964    -1.989277
 H     7.574239     2.681746    -0.272287
 C     5.063213     3.497948     0.147485
 H     5.817103     4.189523     0.533630
 H     1.622496     1.032325     1.489357
 H     0.878905    -0.475940     2.046222
 C     3.017556    -0.456110     2.161025
 C     3.113956    -1.691268     2.817749
 H     2.238645    -2.345356     2.869561
 C     4.138535     0.379602     2.145582
 H     4.072163     1.351472     1.654940
 C     4.310444    -2.082048     3.413698
 H     4.374202    -3.046095     3.924175
 C     5.349285     0.000614     2.733934
 C     6.548201     0.898416     2.642352
 H     6.256823     1.958394     2.655645
 H     7.256035     0.717664     3.464097
 H     7.086286     0.727273     1.694968
 C     5.424024    -1.245283     3.367043
 H     6.361084    -1.558891     3.835272
 H    -0.629451     1.671431     1.581641
 H    -0.318619     2.128976    -0.089291
 C    -1.833988     3.315970     0.879728
 C    -2.534790     3.535449     2.072705
 H    -2.504632     2.772677     2.854180
 C    -1.845002     4.320194    -0.113885
 C    -1.075905     4.167588    -1.396054
 H    -1.373444     3.269119    -1.957567
 H     0.008218     4.085906    -1.213280
 H    -1.232800     5.034538    -2.051879
 C    -3.260396     4.703385     2.287827
 H    -3.797703     4.846999     3.228149
 C    -2.578556     5.488914     0.119028
 H    -2.588205     6.265487    -0.650725
 C    -3.288145     5.685156     1.300880
 H    -3.853196     6.607720     1.452731
 H    -3.497715     2.372172    -0.742136
 H    -2.727850     1.454424    -2.060405
 C    -4.569050     0.621501    -1.337028
 C    -4.611482    -0.553298    -2.096510
 H    -3.695455    -0.931010    -2.552764
 C    -5.754146     1.094292    -0.763501
 H    -5.727507     2.021408    -0.181553
 C    -5.811520    -1.238032    -2.255501
 H    -5.836152    -2.156960    -2.846068
 C    -6.970654     0.417757    -0.913146
 C    -8.215982     0.927715    -0.247561
 H    -8.269721     0.584820     0.799408
 H    -8.243439     2.027177    -0.231167
 H    -9.121906     0.569123    -0.756742
 C    -6.982174    -0.760262    -1.667400
 H    -7.920607    -1.305553    -1.800370
 H    -2.537330     0.533919     2.436091
 H    -4.027615     0.918820     1.555628
 C    -3.605085    -1.189670     1.785834
 C    -4.798036    -1.678552     1.243339
 H    -5.453222    -1.013496     0.680249
 C    -2.789344    -2.067937     2.505164
 H    -1.859686    -1.691542     2.941521
 C    -5.145241    -3.015934     1.409062
 H    -6.077980    -3.386666     0.977119
 C    -3.113525    -3.418216     2.667230
 C    -2.173968    -4.341454     3.387302
 H    -1.304755    -4.582338     2.752569
 H    -1.785057    -3.883687     4.309633
 H    -2.661894    -5.289285     3.655180
 C    -4.308271    -3.883388     2.108275
 H    -4.583333    -4.935478     2.222741
