  88
scf done:    -2305.478019
 C     0.861060    -4.163226     0.061143
 H     1.512738    -4.573728    -0.716708
 H     1.271362    -4.239181     1.072219
 C    -0.546669    -4.180054    -0.125879
 H    -0.964214    -4.601552    -1.045737
 H    -1.202569    -4.274087     0.745170
 H    -0.060636    -2.080098     1.210202
Rh     0.174455    -2.168791    -0.371529
 C     1.863683     0.475081     1.359505
 C     3.506731    -1.782691     0.597671
 C     2.685031     0.164563    -1.419239
 C    -1.749066     0.387861    -1.830503
 C    -3.288816    -1.789313    -0.557165
 C    -1.879574     0.263792     1.108024
 P    -1.696332    -0.802017    -0.418697
 P     2.004588    -0.810465     0.044026
 C     0.407623    -2.271152    -2.251647
 O     0.538386    -2.281178    -3.394692
 H     2.807485     1.038465     1.423842
 H     1.118291     1.196520     0.985442
 C     1.455119    -0.043586     2.730519
 H     2.248277    -0.694385     3.136424
 H     0.574392    -0.698743     2.630082
 C     1.168042     1.085436     3.708485
 H     2.045497     1.739402     3.836623
 H     0.338838     1.717520     3.351158
 H     0.888894     0.698592     4.700228
 H     3.608092    -2.591675    -0.140932
 H     3.198894    -2.261265     1.540139
 C     4.777788    -1.009316     0.744227
 C     5.055234    -0.267030     1.901584
 H     4.364112    -0.310888     2.746352
 C     5.709554    -0.962789    -0.303426
 H     5.534682    -1.562360    -1.201368
 C     6.200163     0.520832     1.993067
 H     6.391651     1.091879     2.904812
 C     6.856174    -0.175622    -0.215855
 H     7.563805    -0.154933    -1.048105
 C     7.101496     0.578765     0.930231
 H     7.998184     1.198611     1.000852
 H     2.090814    -0.142440    -2.289692
 H     3.715196    -0.180417    -1.585043
 C     2.668221     1.654306    -1.272273
 C     3.715602     2.329368    -0.629544
 H     4.579776     1.763784    -0.269876
 C     1.583275     2.404579    -1.741572
 H     0.776584     1.897316    -2.275994
 C     3.661825     3.707948    -0.439574
 H     4.487719     4.214617     0.065774
 C     1.526128     3.784216    -1.549911
 H     0.668001     4.347492    -1.926015
 C     2.563324     4.440898    -0.889947
 H     2.522333     5.521844    -0.736895
 H    -0.995663     1.143865    -1.557376
 H    -1.318019    -0.158334    -2.685845
 C    -3.043765     1.072152    -2.247674
 H    -3.566540     1.478958    -1.369935
 H    -3.719688     0.325110    -2.695534
 C    -2.789799     2.189360    -3.248549
 H    -2.168492     2.979843    -2.797893
 H    -2.264586     1.818808    -4.143923
 H    -3.730043     2.656014    -3.579360
 H    -2.997057    -2.788338    -0.205691
 H    -3.477019    -1.883309    -1.638071
 C    -4.510848    -1.330153     0.176944
 C    -5.523150    -0.586911    -0.442176
 H    -5.435145    -0.336333    -1.500700
 C    -4.670390    -1.658989     1.531526
 H    -3.908895    -2.269336     2.025835
 C    -6.641718    -0.162640     0.271417
 H    -7.417357     0.416931    -0.234999
 C    -5.784620    -1.231986     2.250669
 H    -5.883797    -1.498621     3.305650
 C    -6.773992    -0.474728     1.623868
 H    -7.649646    -0.139693     2.184514
 H    -0.854451     0.333526     1.489231
 H    -2.441437    -0.338480     1.836213
 C    -2.464059     1.635352     0.964019
 C    -3.809260     1.897265     1.251719
 H    -4.448150     1.092017     1.618196
 C    -1.659911     2.696506     0.523129
 H    -0.598137     2.528000     0.321994
 C    -4.343105     3.170071     1.063183
 H    -5.397679     3.348553     1.287260
 C    -2.192607     3.969138     0.332129
 H    -1.544928     4.777968    -0.015522
 C    -3.541415     4.209187     0.591675
 H    -3.962727     5.205871     0.440620
