  96
scf done:    -2610.094185
 C    -1.802658     0.117099    -3.035470
 H    -2.441023    -0.737523    -3.280441
 H    -2.349461     1.051469    -2.883481
 C    -0.456755     0.142629    -3.468461
 H    -0.064071    -0.693438    -4.055869
 H     0.038974     1.096605    -3.668622
 H    -0.560891     1.293335    -1.194873
Rh    -0.537722    -0.288015    -1.339569
 C    -1.925274     1.303753     1.628353
 C    -3.789561     0.149748    -0.368499
 C    -2.272437    -1.440916     1.581229
 C     1.574521     0.368761     1.392770
 C     2.406220    -1.847372    -0.383290
 C     2.814177     0.978842    -1.132985
 P     1.601849    -0.201142    -0.393691
 P    -2.115477    -0.064646     0.351250
 C    -0.479491    -2.172171    -1.641026
 O    -0.406656    -3.290582    -1.884596
 H    -1.015159     0.979537     2.155225
 H    -2.744524     1.183465     2.350157
 C    -1.810234     2.755936     1.256217
 C    -2.789235     3.658463     1.696785
 H    -3.636984     3.283689     2.277519
 C    -0.727290     3.270268     0.531807
 H     0.048617     2.597774     0.169152
 C    -2.703554     5.018194     1.407011
 H    -3.482570     5.697244     1.761985
 C    -0.636666     4.629294     0.240295
 H     0.219937     4.997907    -0.329621
 C    -1.626230     5.510158     0.671988
 H    -1.555626     6.575987     0.442757
 C    -4.313571     1.442761    -0.495126
 H    -3.756561     2.294390    -0.106513
 C    -4.493970    -0.938672    -0.933583
 C    -3.980558    -2.346833    -0.897223
 H    -4.067643    -2.795571     0.104580
 H    -2.915924    -2.388042    -1.165874
 H    -4.537539    -2.980732    -1.600594
 C    -5.533635     1.673465    -1.124436
 H    -5.916216     2.693599    -1.205335
 C    -5.720571    -0.681850    -1.557105
 H    -6.269580    -1.523012    -1.989650
 C    -6.249148     0.602586    -1.650305
 H    -7.208682     0.764768    -2.146940
 C    -1.172664    -2.305069     1.648688
 H    -0.355658    -2.156850     0.939547
 C    -3.356093    -1.633030     2.470670
 C    -4.621509    -0.821888     2.454882
 H    -5.292845    -1.156370     1.647852
 H    -4.454688     0.247055     2.276462
 H    -5.159376    -0.933558     3.406625
 C    -1.107161    -3.344769     2.570801
 H    -0.235473    -4.003232     2.587196
 C    -3.269281    -2.686235     3.391832
 H    -4.102861    -2.843037     4.082155
 C    -2.166898    -3.534348     3.451661
 H    -2.142529    -4.344278     4.184766
 H     0.996823    -0.387346     1.945131
 H     0.930152     1.255755     1.331289
 C     2.845152     0.732922     2.095542
 C     3.456119     1.968165     1.837171
 H     2.985840     2.663773     1.138199
 C     3.452075    -0.125510     3.021427
 H     2.978566    -1.078052     3.268832
 C     4.657422     2.312939     2.449655
 H     5.120026     3.276881     2.224753
 C     4.652559     0.219057     3.638734
 H     5.109262    -0.467855     4.355280
 C     5.266731     1.435288     3.345579
 H     6.210717     1.704813     3.825054
 C     2.420900    -2.615312     0.787621
 H     2.046946    -2.192918     1.719482
 C     2.858817    -2.423819    -1.592547
 C     2.833753    -1.678916    -2.893747
 H     3.666971    -0.961797    -2.968016
 H     1.907288    -1.093713    -2.998949
 H     2.909441    -2.374143    -3.741054
 C     2.899116    -3.922340     0.793942
 H     2.901880    -4.496456     1.723544
 C     3.339716    -3.737217    -1.561717
 H     3.689498    -4.185563    -2.495648
 C     3.369960    -4.485196    -0.388179
 H     3.748442    -5.509847    -0.402145
 C     2.228307     2.054848    -1.814297
 H     1.140743     2.058693    -1.921613
 C     4.222997     0.922654    -1.005474
 C     4.976559    -0.178234    -0.317631
 H     5.061207    -1.069986    -0.958396
 H     4.495382    -0.501935     0.611749
 H     5.993211     0.158048    -0.072406
 C     2.991592     3.085585    -2.353244
 H     2.503573     3.913374    -2.872970
 C     4.970360     1.963905    -1.574176
 H     6.059089     1.929876    -1.479211
 C     4.377113     3.035771    -2.233338
 H     5.000138     3.829013    -2.653926
