  62
scf done:    -1765.179128
 C    -0.682918    -3.929268    -0.598029
 H    -0.830855    -4.522329     0.309747
 H    -1.541614    -3.929819    -1.275651
 C     0.625368    -3.772644    -1.126385
 H     1.472970    -4.245221    -0.620203
 H     0.760055    -3.653098    -2.205206
 H    -0.625409    -1.581295    -1.623382
Rh     0.010736    -1.930646    -0.191684
 C    -2.043327     0.916538    -0.282928
 C    -3.446490    -1.597550     0.172363
 C    -2.011841    -0.400493     2.289274
 C     2.093216     0.821015     0.543344
 C     3.243385    -1.145741    -1.280674
 C     1.305908     0.664695    -2.236531
 P     1.637550    -0.409421    -0.788911
 P    -1.845917    -0.767678     0.498716
 C     0.740357    -2.299345     1.521828
 O     1.183659    -2.465125     2.570411
 H    -1.172290     1.484626     0.081640
 H    -1.880148     0.749453    -1.356627
 C    -3.314384     1.658371    -0.006319
 C    -3.436557     2.404601     1.173305
 H    -2.578983     2.469193     1.848319
 C    -4.405107     1.613582    -0.901825
 C    -4.312151     0.898513    -2.219797
 H    -4.081400    -0.169986    -2.101775
 H    -3.518215     1.327055    -2.853331
 H    -5.256795     0.976761    -2.774974
 C    -4.614262     3.071986     1.497040
 H    -4.680459     3.646397     2.423984
 C    -5.582537     2.288563    -0.560597
 H    -6.427338     2.254320    -1.254146
 C    -5.699255     3.005796     0.627318
 H    -6.632361     3.521807     0.865140
 H    -3.481099    -1.918682    -0.877399
 H    -3.481308    -2.502823     0.795788
 H    -4.310545    -0.955644     0.404571
 H    -1.960203    -1.353759     2.835434
 H    -1.164594     0.219991     2.616708
 H    -2.957258     0.107015     2.532262
 H     1.173882     1.411126     0.688971
 H     2.222398     0.225706     1.458446
 C     3.264770     1.715143     0.278697
 C     3.087444     2.882627    -0.475450
 H     2.081442     3.144966    -0.813779
 C     4.555485     1.399975     0.756677
 C     4.798928     0.206333     1.635889
 H     4.504028    -0.736878     1.153906
 H     4.225374     0.275091     2.574766
 H     5.861632     0.126457     1.902209
 C     4.155385     3.717831    -0.790470
 H     3.987282     4.622292    -1.379772
 C     5.618549     2.249173     0.429420
 H     6.618276     2.005679     0.799744
 C     5.432847     3.393554    -0.342056
 H     6.283528     4.036178    -0.580599
 H     3.571177    -1.858230    -0.511467
 H     3.071388    -1.717090    -2.204514
 H     4.022914    -0.387442    -1.454147
 H     1.070410     0.010149    -3.087658
 H     0.424768     1.291297    -2.038789
 H     2.165571     1.303734    -2.487392
