  80
scf done:    -2449.138671
 C    -0.992307    -3.606502     0.800235
 H    -0.414999    -4.473516     0.465652
 H    -0.988103    -3.450715     1.882394
 C    -2.088829    -3.149093     0.033916
 H    -2.356339    -3.662924    -0.893766
 H    -2.919684    -2.633099     0.521771
 H    -1.052761    -1.066492     1.021797
Rh    -0.421515    -1.786522    -0.241595
 C     2.938682    -2.278763     0.948329
 O     2.235871     0.111287    -0.127553
 O     1.493939    -0.605432     2.278540
 C    -0.752686     0.641376    -2.874646
 O    -2.767435     0.471240    -1.247195
 O    -0.553098     1.409677    -0.287037
 P    -1.134775     0.130780    -1.168567
 P     1.522917    -1.152496     0.703904
 C     0.234841    -2.680233    -1.808243
 O     0.601992    -3.215787    -2.753821
 H     3.703914    -1.750157     1.539711
 H     2.549846    -3.095600     1.578898
 C     3.519804    -2.816785    -0.351929
 H     3.850153    -1.973542    -0.981302
 H     2.731019    -3.333061    -0.922231
 C     4.685537    -3.764147    -0.115905
 H     5.506436    -3.260164     0.418393
 H     4.378669    -4.631967     0.489337
 H     5.088801    -4.145281    -1.066045
 C     3.457724     0.689807     0.056797
 C     4.155286     1.056218    -1.098295
 H     3.711803     0.827543    -2.069566
 C     3.991093     0.971925     1.318292
 H     3.436753     0.694837     2.214962
 C     5.384956     1.698872    -0.992333
 H     5.923638     1.982544    -1.899731
 C     5.227869     1.610050     1.408366
 H     5.641830     1.827997     2.395876
 C     5.929481     1.976753     0.261814
 H     6.895360     2.479444     0.344035
 C     0.487753     0.161367     2.805936
 C    -0.428832    -0.432568     3.672479
 H    -0.347389    -1.501707     3.875226
 C     0.411551     1.522362     2.514458
 H     1.127994     1.966781     1.823053
 C    -1.423911     0.347011     4.257572
 H    -2.139259    -0.117730     4.940347
 C    -0.593276     2.291715     3.095791
 H    -0.659431     3.355253     2.854831
 C    -1.511739     1.709355     3.969564
 H    -2.297072     2.317288     4.424311
 H    -1.056988     1.694302    -2.995682
 H     0.348205     0.606654    -2.945843
 C    -1.406046    -0.237646    -3.933611
 H    -2.499856    -0.164581    -3.823740
 H    -1.150771    -1.294208    -3.751073
 C    -0.994187     0.150567    -5.344825
 H    -1.261813     1.195906    -5.566704
 H     0.093968     0.050228    -5.484776
 H    -1.486465    -0.487458    -6.094122
 C    -3.653326     0.095722    -0.274917
 C    -4.814850    -0.565096    -0.675054
 H    -4.960959    -0.773854    -1.736385
 C    -3.424057     0.377655     1.073311
 H    -2.513613     0.895236     1.380263
 C    -5.749937    -0.953143     0.280353
 H    -6.657267    -1.474421    -0.034153
 C    -4.364444    -0.024039     2.020071
 H    -4.176152     0.189850     3.074348
 C    -5.526333    -0.689270     1.632297
 H    -6.257825    -1.000948     2.381041
 C    -0.557143     2.729926    -0.633239
 C    -1.745007     3.461606    -0.691860
 H    -2.694821     2.959535    -0.503915
 C     0.673523     3.348041    -0.864647
 H     1.582085     2.745152    -0.809049
 C    -1.690876     4.821970    -0.991274
 H    -2.618848     5.396995    -1.038738
 C     0.712727     4.709187    -1.156546
 H     1.676102     5.193195    -1.334219
 C    -0.467464     5.450248    -1.222906
 H    -0.433722     6.517369    -1.453055
