  88
scf done:    -2154.139727
 C     0.029648    -2.292409    -3.040075
 H    -0.228640    -1.837591    -4.000857
 H     1.029285    -2.732681    -3.011140
 C    -0.990875    -2.810648    -2.209603
 H    -2.038016    -2.750936    -2.518599
 H    -0.771920    -3.643485    -1.536104
 H     0.765189    -1.819453    -0.607820
Rh    -0.312733    -0.930233    -1.374083
 C     1.379368     2.163340    -2.078831
 O     1.667290     0.988628     0.360594
 O     2.898403     0.124293    -1.715350
 C    -1.783335     0.690173     1.459343
 O    -2.946183    -1.549345     0.405434
 O    -0.881337    -1.662368     1.936954
 P    -1.449860    -0.888322     0.600790
 P     1.385043     0.547533    -1.213163
 C    -1.592494     0.083697    -2.363314
 O    -2.378010     0.649093    -2.979334
 H     2.346942     2.649653    -1.866528
 H     1.388585     1.921166    -3.154595
 C     0.210734     3.075128    -1.734162
 H     0.100287     3.134825    -0.638771
 H    -0.723557     2.628311    -2.107056
 C     0.366035     4.474918    -2.307537
 H     1.264835     4.973227    -1.908903
 H     0.463983     4.449091    -3.404369
 H    -0.501730     5.106522    -2.064062
 C     2.793425     1.751464     0.771903
 H     3.210039     1.235419     1.653545
 H     3.572431     1.733046    -0.007722
 C     2.427033     3.174919     1.144522
 H     3.348201     3.677736     1.489021
 H     2.103312     3.724042     0.244465
 C     1.350802     3.269313     2.215050
 H     1.708343     2.773845     3.135125
 H     0.477756     2.684911     1.884034
 C     0.927441     4.696090     2.519586
 H     1.776226     5.303961     2.872267
 H     0.521831     5.189493     1.621130
 H     0.148392     4.730792     3.296244
 C     3.337386    -1.201437    -1.960061
 H     2.574000    -1.917530    -1.611705
 H     3.438673    -1.325869    -3.051089
 C     4.663429    -1.450007    -1.272311
 H     5.092639    -2.381804    -1.680897
 H     5.360931    -0.641031    -1.552199
 C     4.555745    -1.552360     0.241719
 H     3.928574    -2.423268     0.496753
 H     4.007433    -0.675804     0.620097
 C     5.897870    -1.660288     0.944508
 H     6.459867    -2.546151     0.606821
 H     6.526563    -0.777775     0.743064
 H     5.776056    -1.739493     2.035643
 H    -2.337168     0.468585     2.387364
 H    -0.786750     1.050217     1.762322
 C    -2.496496     1.723931     0.602573
 H    -3.437130     1.301863     0.211929
 H    -1.877336     1.936255    -0.281443
 C    -2.782076     3.017541     1.348512
 H    -3.431773     2.843032     2.221475
 H    -1.852620     3.479183     1.718473
 H    -3.284326     3.751754     0.700398
 C    -3.839716    -1.812958     1.477453
 H    -4.239135    -2.825724     1.300338
 H    -3.290839    -1.843410     2.433746
 C    -4.978881    -0.812522     1.530879
 H    -5.665893    -1.126280     2.337022
 H    -4.591512     0.175196     1.834147
 C    -5.738541    -0.679289     0.218795
 H    -6.179673    -1.656679    -0.045252
 H    -5.018152    -0.452487    -0.584372
 C    -6.821595     0.385534     0.263051
 H    -7.567475     0.172048     1.045950
 H    -6.393717     1.378037     0.480363
 H    -7.357023     0.459456    -0.695474
 C     0.029138    -2.748526     1.885803
 H    -0.338038    -3.501816     2.603099
 H     0.026520    -3.202022     0.880641
 C     1.423739    -2.284160     2.246589
 H     2.109299    -3.146374     2.163094
 H     1.741925    -1.550674     1.487369
 C     1.529028    -1.661956     3.630848
 H     1.229449    -2.404430     4.392255
 H     0.794951    -0.842638     3.701985
 C     2.921515    -1.138831     3.942147
 H     3.675484    -1.941159     3.888545
 H     3.221578    -0.362428     3.220326
 H     2.976849    -0.696713     4.948558
