 102
scf done:    -2688.656198
 C     0.538657    -3.792107    -0.622117
 H     0.778104    -3.947220    -1.679094
 H     1.308475    -4.161927     0.059484
 C    -0.810009    -3.765148    -0.197575
 H    -1.625244    -3.891924    -0.916987
 H    -1.049872    -4.098592     0.814141
 H     0.364569    -2.031469     1.308003
Rh    -0.052212    -1.744728    -0.214741
 C     1.831495     0.904439     1.196504
 C     3.483345    -1.112498    -0.029130
 C     1.893658     0.631398    -1.780490
 C    -1.664935     1.236242    -0.400184
 C    -3.432852    -1.201042    -0.164833
 C    -2.241239     0.022998     2.197968
 P    -1.893189    -0.424576     0.443566
 P     1.821884    -0.330462    -0.218823
 C    -0.539128    -1.466701    -2.033326
 O    -0.852049    -1.299322    -3.124263
 H     0.947743     1.543175     1.055380
 H     1.582831     0.255950     2.046454
 C     3.043769     1.737217     1.494761
 C     3.123025     3.041573     0.980001
 H     2.284112     3.437859     0.406069
 C     4.104224     1.263606     2.297094
 C     4.098547    -0.067667     2.993108
 H     4.770724    -0.780035     2.491436
 H     3.107310    -0.535514     3.027340
 H     4.453984     0.046403     4.028415
 C     4.237754     3.846413     1.176517
 H     4.266092     4.853421     0.754322
 C     5.224028     2.087609     2.479645
 H     6.048408     1.714949     3.094450
 C     5.309995     3.355800     1.918634
 H     6.200216     3.968277     2.080354
 C     3.459008    -2.359345     0.609159
 H     2.486512    -2.761481     0.897676
 C     4.724293    -0.551375    -0.413124
 C     4.890008     0.762305    -1.119868
 H     4.195387     1.527709    -0.759765
 H     4.717511     0.658299    -2.203070
 H     5.911675     1.140439    -0.977436
 C     4.623779    -3.069696     0.877141
 H     4.571820    -4.037985     1.379958
 C     5.884734    -1.288430    -0.134569
 H     6.849423    -0.862729    -0.423970
 C     5.848511    -2.527733     0.497674
 H     6.779193    -3.065643     0.694701
 C     1.434717     1.953444    -1.818304
 H     1.123478     2.445435    -0.898341
 C     2.241328    -0.009707    -2.993002
 C     2.699319    -1.437541    -3.052821
 H     2.573665    -1.840416    -4.067234
 H     2.138592    -2.073356    -2.351053
 H     3.761830    -1.534539    -2.778476
 C     1.347357     2.663561    -3.011913
 H     0.991014     3.696390    -3.005091
 C     2.145499     0.722456    -4.181883
 H     2.411125     0.227228    -5.119834
 C     1.713461     2.045270    -4.203911
 H     1.650761     2.585254    -5.151470
 H    -0.821637     1.617480     0.195646
 H    -1.228890     0.982522    -1.373303
 C    -2.691788     2.321016    -0.540983
 C    -3.139830     3.010609     0.592668
 H    -2.743918     2.729741     1.571346
 C    -3.142688     2.730634    -1.816022
 C    -2.573817     2.165838    -3.089641
 H    -2.652893     1.070980    -3.167478
 H    -1.500071     2.397467    -3.181536
 H    -3.082181     2.594800    -3.963826
 C    -4.075950     4.034628     0.498994
 H    -4.413576     4.549303     1.401670
 C    -4.093948     3.755821    -1.889509
 H    -4.453474     4.067741    -2.874023
 C    -4.571733     4.397598    -0.750720
 H    -5.312996     5.194926    -0.843131
 C    -4.025632    -0.753639    -1.349770
 H    -3.632150     0.129719    -1.847684
 C    -3.960622    -2.335609     0.492835
 C    -3.406652    -2.850083     1.788920
 H    -3.815576    -2.291956     2.646943
 H    -2.313856    -2.745075     1.833226
 H    -3.661462    -3.910256     1.926198
 C    -5.126410    -1.403506    -1.899473
 H    -5.570850    -1.030928    -2.825126
 C    -5.066903    -2.973834    -0.078691
 H    -5.477460    -3.854386     0.423528
 C    -5.650697    -2.522665    -1.259809
 H    -6.512473    -3.047583    -1.678675
 C    -1.147056    -0.106922     3.062570
 H    -0.227130    -0.532109     2.655553
 C    -3.479834     0.480363     2.709287
 C    -4.750079     0.581193     1.913185
 H    -5.260930    -0.394143     1.866476
 H    -4.586928     0.900802     0.879339
 H    -5.437238     1.297196     2.385358
 C    -1.225306     0.245859     4.405650
 H    -0.351794     0.138499     5.052708
 C    -3.535268     0.824762     4.067446
 H    -4.485230     1.185294     4.471773
 C    -2.431540     0.722402     4.909266
 H    -2.520777     1.006090     5.960795
