  88
scf done:    -2702.247011
 C     1.463820    -1.703503    -3.134776
 H     1.954425    -1.096391    -3.902961
 H     2.115555    -2.449683    -2.671877
 C     0.070515    -1.952509    -3.245924
 H    -0.476938    -1.531346    -4.095278
 H    -0.351385    -2.887945    -2.868250
 H     0.565022    -1.877744    -0.790526
Rh     0.397370    -0.552319    -1.652184
 C     2.236566    -0.711228     1.372572
 C     3.527029     0.882357    -0.616789
 C     1.237173     1.895026     0.707123
 C    -2.189963     1.331207    -0.162156
 C    -3.050352    -1.235792    -1.088734
 C    -1.420914    -1.087446     1.256704
 P    -1.565167    -0.384524    -0.430912
 P     1.853213     0.353832    -0.080915
 C     0.191389     0.988103    -2.756861
 O     0.054723     1.906898    -3.433033
 H     2.851072    -0.135075     2.085182
 H     1.272134    -0.930249     1.859372
 C     2.926910    -2.012129     0.997153
 H     2.322529    -2.522779     0.228410
 H     3.902291    -1.795656     0.527314
 C     3.122257    -2.933961     2.192549
 H     2.143040    -3.113172     2.673048
 H     3.740844    -2.427162     2.955773
 C     3.758044    -4.268468     1.830409
 H     3.136821    -4.765629     1.064402
 H     4.734411    -4.085843     1.347774
 C     3.939613    -5.193162     3.023074
 H     4.396399    -6.150772     2.730697
 H     2.973970    -5.418120     3.504375
 H     4.587058    -4.735861     3.788589
 C     4.345432     1.666266     0.208439
 H     3.973747     2.013109     1.176670
 C     4.012002     0.469517    -1.860440
 H     3.361798    -0.131598    -2.499751
 C     5.625779     2.026477    -0.196345
 H     6.276223     2.640437     0.429324
 C     5.293882     0.820827    -2.278895
 H     5.687878     0.507817    -3.247417
 C     6.083113     1.594518    -1.438266
 F     7.307177     1.939030    -1.829501
 C     1.022065     3.014922    -0.112147
 H     1.321732     2.984168    -1.162519
 C     0.853751     1.969793     2.050417
 H     1.016750     1.124703     2.719721
 C     0.408942     4.160327     0.379381
 H     0.225752     5.029257    -0.255040
 C     0.226412     3.109414     2.556452
 H    -0.091404     3.171650     3.599057
 C    -0.001787     4.183918     1.709309
 F    -0.630846     5.259938     2.177066
 H    -1.415482     1.836059     0.437589
 H    -2.131354     1.804425    -1.156097
 C    -3.572459     1.534286     0.438024
 H    -4.336896     1.148428    -0.256620
 H    -3.687609     0.939750     1.360455
 C    -3.845872     3.001147     0.746055
 H    -3.745722     3.591855    -0.182710
 H    -3.060763     3.386903     1.422699
 C    -5.213562     3.254477     1.363288
 H    -5.994874     2.872126     0.682919
 H    -5.307646     2.658509     2.288659
 C    -5.470766     4.720911     1.670077
 H    -6.461902     4.874817     2.122865
 H    -5.424017     5.333741     0.755539
 H    -4.718326     5.120072     2.369279
 C    -4.026141    -1.813775    -0.266893
 H    -3.895924    -1.814740     0.817788
 C    -3.238577    -1.250545    -2.475881
 H    -2.466565    -0.821909    -3.119146
 C    -5.166130    -2.394900    -0.815471
 H    -5.933067    -2.854873    -0.189621
 C    -4.379647    -1.815367    -3.037455
 H    -4.539294    -1.834431    -4.117000
 C    -5.328629    -2.384138    -2.195987
 F    -6.417065    -2.937744    -2.724688
 C    -1.110792    -2.452067     1.373645
 H    -1.039478    -3.065253     0.471900
 C    -1.484599    -0.317311     2.422027
 H    -1.718239     0.746158     2.369353
 C    -0.864786    -3.031252     2.611711
 H    -0.620251    -4.090406     2.710342
 C    -1.225084    -0.881207     3.672403
 H    -1.262544    -0.285665     4.586464
 C    -0.914450    -2.231102     3.750155
 F    -0.654930    -2.774996     4.936179
