  90
scf done:    -2928.310317
 C    -1.059029    -2.580302    -2.502245
 H    -1.589789    -3.442915    -2.087010
 H    -1.652713    -1.992281    -3.208625
 C     0.348690    -2.635146    -2.644758
 H     0.881664    -3.539112    -2.335022
 H     0.838448    -2.082472    -3.450910
 H    -0.200484    -0.213580    -2.141784
Rh    -0.146831    -1.322566    -0.999578
 C    -2.849352     0.776717    -1.605896
 C    -3.311209    -1.061411     0.596013
 C    -1.614773     1.177795     1.010709
 C     1.821415     0.443821     1.325651
 C     3.370023    -1.185291    -0.517172
 C     2.216679     1.222878    -1.470797
 P     1.808571    -0.223914    -0.423658
 P    -1.963520    -0.129197    -0.231098
 C    -0.016924    -2.579328     0.431800
 O     0.097953    -3.271122     1.342513
 H    -2.169519     1.590365    -1.900731
 H    -2.828286     0.061116    -2.437999
 C    -4.233078     1.268752    -1.315337
 C    -4.424730     2.510782    -0.696777
 H    -3.558145     3.137207    -0.478224
 C    -5.359416     0.472422    -1.616205
 C    -5.222611    -0.851766    -2.309339
 H    -4.612415    -1.556272    -1.724225
 H    -4.740084    -0.745952    -3.294608
 H    -6.206361    -1.313601    -2.468114
 C    -5.693745     2.959378    -0.342230
 H    -5.813302     3.930102     0.144491
 C    -6.627842     0.940449    -1.257530
 H    -7.499604     0.321431    -1.486158
 C    -6.803274     2.164301    -0.617410
 H    -7.806599     2.500128    -0.344871
 C    -4.339147    -0.415107     1.300246
 H    -4.330129     0.670838     1.411614
 C    -3.353972    -2.454481     0.471339
 H    -2.560334    -2.958910    -0.083064
 C    -5.383487    -1.141268     1.861170
 H    -6.191925    -0.649970     2.405092
 C    -4.393784    -3.195117     1.027166
 H    -4.436133    -4.281844     0.937313
 C    -5.398002    -2.524199     1.713399
 F    -6.397228    -3.221061     2.246958
 C    -1.536515     0.830806     2.368042
 H    -1.807237    -0.179655     2.684496
 C    -1.241817     2.474288     0.637175
 H    -1.262571     2.771804    -0.412917
 C    -1.108365     1.746040     3.323609
 H    -1.043500     1.480987     4.380374
 C    -0.812136     3.404333     1.582426
 H    -0.525938     4.418953     1.298603
 C    -0.749426     3.026929     2.918141
 F    -0.340868     3.908260     3.825430
 H     1.122555     1.292494     1.315136
 H     1.319774    -0.340818     1.907493
 C     3.139780     0.822008     1.922976
 C     3.660470     2.106544     1.722017
 H     3.071189     2.838986     1.167306
 C     3.891541    -0.115787     2.663327
 C     3.369465    -1.495024     2.941410
 H     3.190266    -2.058232     2.013038
 H     2.413129    -1.466235     3.488541
 H     4.083010    -2.069248     3.547523
 C     4.916133     2.464978     2.203590
 H     5.301336     3.472002     2.027462
 C     5.148901     0.263035     3.145082
 H     5.733826    -0.464292     3.714635
 C     5.669595     1.533445     2.913576
 H     6.657535     1.797895     3.298014
 C     4.625150    -0.565256    -0.411465
 H     4.695967     0.520111    -0.319372
 C     3.315734    -2.576630    -0.650091
 H     2.342110    -3.057703    -0.755997
 C     5.793404    -1.318623    -0.418561
 H     6.774612    -0.849724    -0.328191
 C     4.477327    -3.344731    -0.656001
 H     4.446820    -4.430845    -0.757720
 C     5.702461    -2.701746    -0.534181
 F     6.818859    -3.425272    -0.537077
 C     2.878274     1.013944    -2.688784
 H     3.224850     0.011776    -2.952137
 C     1.768945     2.512830    -1.168919
 H     1.233859     2.704139    -0.238492
 C     3.100746     2.063031    -3.574359
 H     3.617694     1.909662    -4.523313
 C     1.984087     3.574200    -2.045071
 H     1.644640     4.585520    -1.813430
 C     2.650638     3.335007    -3.239581
 F     2.862443     4.344101    -4.081192
