  48
scf done:    -1381.983593
 C    -2.077956    -2.396064    -0.949424
 H    -2.432309    -3.062429    -0.156740
 H    -2.878785    -1.888521    -1.494909
 C    -0.853632    -2.684201    -1.610114
 H    -0.277285    -3.567690    -1.317768
 H    -0.726777    -2.396501    -2.657830
 H    -1.042669    -0.142696    -1.534707
Rh    -0.568357    -1.015578    -0.278967
 C    -1.376014     2.388208     0.417094
 C    -3.499808     0.525791     0.874805
 C    -1.332826     0.726377     2.702273
 C     2.484309     0.460501     0.674276
 C     2.680352    -1.404815    -1.516403
 C     1.624100     1.195294    -1.975061
 P     1.527293    -0.185973    -0.771016
 P    -1.667893     0.627574     0.898576
 C    -0.016849    -2.040399     1.222740
 O     0.330518    -2.627902     2.148809
 H    -1.892601     3.040459     1.144413
 H    -0.293723     2.562476     0.552303
 C    -1.789490     2.741107    -1.004510
 H    -2.884023     2.644395    -1.102295
 H    -1.362597     1.995647    -1.695613
 C    -1.365105     4.143118    -1.413195
 H    -1.795567     4.907140    -0.745982
 H    -0.269035     4.255816    -1.374702
 H    -1.685902     4.377466    -2.439576
 H    -3.845521     0.520844    -0.168395
 H    -3.800160    -0.429944     1.327900
 H    -3.973693     1.358309     1.419482
 H    -1.916224     1.521606     3.192791
 H    -1.573892    -0.240795     3.166781
 H    -0.259997     0.914136     2.857079
 H     1.850927     1.254062     1.109401
 H     2.477639    -0.356539     1.416872
 C     3.901311     0.971642     0.454004
 H     3.895239     1.780161    -0.296323
 H     4.524175     0.167354     0.028211
 C     4.543150     1.480025     1.736947
 H     3.964279     2.311594     2.169996
 H     4.595466     0.685139     2.497931
 H     5.567488     1.842481     1.561375
 H     2.833327    -2.228457    -0.803629
 H     2.198490    -1.824824    -2.410834
 H     3.653290    -0.971333    -1.794813
 H     1.114049     0.883191    -2.897217
 H     1.087781     2.066850    -1.573435
 H     2.660248     1.481340    -2.210736
