  90
scf done:    -2531.533637
 C     1.471616    -2.541394    -2.025091
 H     2.004617    -2.226365    -2.927100
 H     2.113756    -2.988992    -1.261003
 C     0.115061    -2.944466    -2.097276
 H    -0.396906    -2.951746    -3.065141
 H    -0.259272    -3.686799    -1.386851
 H     0.357656    -1.785083     0.148177
Rh     0.237467    -0.975317    -1.214207
 C     2.230569     0.088624     1.552337
 C     3.421964     0.601887    -1.076425
 C     1.330046     2.274354    -0.152057
 C    -2.628698     1.120296    -0.813658
 C    -3.034399    -1.600078     0.071220
 C    -1.356693     0.118947     1.621181
 P    -1.701747    -0.352800    -0.119789
 P     1.791838     0.486124    -0.235237
 C    -0.073044    -0.135689    -2.897334
 O    -0.330885     0.321848    -3.919454
 H     2.246632     1.031324     2.112086
 H     1.372303    -0.481791     1.926086
 C     3.526289    -0.636997     1.762872
 C     4.719461     0.095360     1.746646
 H     4.673722     1.176588     1.590435
 C     3.579913    -2.032544     1.953988
 C     2.333496    -2.865977     2.030639
 H     1.700239    -2.738206     1.138992
 H     1.714121    -2.578666     2.896553
 H     2.578505    -3.932023     2.132658
 C     5.957016    -0.521550     1.890404
 H     6.871965     0.074313     1.861777
 C     4.833940    -2.639833     2.093155
 H     4.878699    -3.722921     2.237675
 C     6.014748    -1.902871     2.056027
 H     6.977666    -2.408253     2.162514
 C     4.129947    -0.586739    -1.305265
 C     3.980310     1.811538    -1.504721
 C     5.926262     0.647176    -2.344258
 C     5.222960     1.831386    -2.138526
 C     5.375009    -0.563284    -1.923553
 H     3.706887    -1.537076    -0.980124
 H     5.918084    -1.498691    -2.076624
 H     6.902097     0.665836    -2.835585
 H     5.642949     2.784110    -2.470542
 H     3.445937     2.749644    -1.344693
 C     1.803445     3.158405     0.826304
 C     0.478772     2.778772    -1.141694
 C     0.532699     4.974734    -0.138753
 C     0.083264     4.115546    -1.139630
 C     1.402360     4.492869     0.839076
 H     2.497488     2.815412     1.595822
 H     1.775986     5.161724     1.618310
 H     0.213867     6.019604    -0.125102
 H    -0.585792     4.482799    -1.921476
 H     0.114976     2.109277    -1.921702
 H    -1.975363     1.985261    -0.628167
 H    -2.615195     0.957666    -1.900227
 C    -4.016482     1.362798    -0.304608
 C    -4.212000     2.084468     0.879997
 H    -3.346789     2.500619     1.398751
 C    -5.139916     0.843535    -0.983471
 C    -4.999889     0.089706    -2.273536
 H    -4.404796    -0.826561    -2.143187
 H    -4.501171     0.695303    -3.047753
 H    -5.983755    -0.204522    -2.663159
 C    -5.482129     2.269577     1.417952
 H    -5.604114     2.830874     2.347299
 C    -6.409622     1.044272    -0.431952
 H    -7.279002     0.638043    -0.956073
 C    -6.589233     1.738989     0.760991
 H    -7.593529     1.873921     1.169727
 C    -3.072184    -2.678280    -0.818390
 C    -4.050774    -1.465656     1.027610
 C    -5.121028    -3.463219     0.187705
 C    -5.086945    -2.393887     1.083220
 C    -4.111475    -3.605840    -0.762436
 H    -2.271596    -2.772515    -1.554174
 H    -4.129874    -4.443812    -1.463351
 H    -5.936650    -4.189178     0.234021
 H    -5.877922    -2.274887     1.827365
 H    -4.037773    -0.628337     1.728225
 C    -1.016865     1.427648     1.981270
 C    -1.248542    -0.891841     2.587775
 C    -0.492540     0.712806     4.230258
 C    -0.823763    -0.597064     3.880293
 C    -0.590154     1.722262     3.275916
 H    -1.058289     2.233712     1.247389
 H    -0.325661     2.751219     3.531326
 H    -0.155459     0.942844     5.243586
 H    -0.746343    -1.398307     4.619281
 H    -1.489832    -1.923255     2.319093
