  90
scf done:    -2380.220605
 C    -1.216478    -3.355312    -0.988726
 H    -1.684965    -3.898869    -0.162536
 H    -1.888920    -3.158169    -1.829243
 C     0.175428    -3.498342    -1.225139
 H     0.776298    -4.142454    -0.576552
 H     0.568243    -3.401051    -2.240704
 H    -0.408584    -1.097200    -1.859533
Rh    -0.189017    -1.564252    -0.347353
 C    -3.206761    -0.035941    -1.319837
 O    -2.544155     0.462199     1.190664
 O    -1.044521     1.528330    -0.604356
 C     1.956706     0.872464     0.890694
 O     3.090361    -1.408149    -0.133804
 O     2.285785     0.397960    -1.718991
 P     1.795261    -0.446792    -0.396683
 P    -1.731950     0.079193    -0.184953
 C     0.116876    -2.196330     1.426349
 O     0.350867    -2.597845     2.475679
 H    -2.989546     0.633104    -2.164332
 H    -3.155441    -1.060124    -1.715007
 C    -4.548464     0.253015    -0.718286
 C    -5.143669     1.507445    -0.876680
 H    -4.636286     2.265751    -1.478821
 C    -5.214973    -0.735278     0.034902
 C    -4.632296    -2.109671     0.187644
 H    -3.576115    -2.081105     0.492717
 H    -4.668389    -2.665310    -0.764759
 H    -5.186656    -2.695436     0.933697
 C    -6.369976     1.808670    -0.288273
 H    -6.814593     2.797104    -0.426178
 C    -6.443393    -0.418486     0.620667
 H    -6.959894    -1.182820     1.208166
 C    -7.020879     0.841273     0.471087
 H    -7.981629     1.061731     0.942419
 C    -2.007138     0.256367     2.497794
 H    -0.914812     0.108080     2.413207
 C    -2.639206    -0.981768     3.100342
 H    -2.425613    -1.867225     2.486483
 H    -3.731094    -0.854501     3.156379
 H    -2.249200    -1.165464     4.112319
 C    -2.283806     1.504475     3.310418
 H    -1.805501     2.384546     2.858941
 H    -3.367551     1.689755     3.358620
 H    -1.901822     1.390320     4.335674
 C    -1.709248     2.793514    -0.530456
 H    -2.682858     2.654123    -0.029869
 C    -1.915696     3.336218    -1.932574
 H    -2.525944     2.659362    -2.546595
 H    -0.945859     3.467491    -2.435702
 H    -2.422239     4.312556    -1.898364
 C    -0.850806     3.718987     0.309770
 H    -0.683854     3.296512     1.309960
 H     0.131483     3.868115    -0.165363
 H    -1.330893     4.702382     0.424108
 H     1.258464     1.645871     0.534722
 H     1.514643     0.444581     1.801226
 C     3.330712     1.406649     1.129557
 C     3.853832     2.394960     0.287114
 H     3.229628     2.780822    -0.521256
 C     4.128882     0.894188     2.173559
 C     3.605278    -0.165450     3.100549
 H     3.265797    -1.052679     2.544118
 H     2.745480     0.197550     3.687966
 H     4.379408    -0.485115     3.811737
 C     5.150876     2.871589     0.451316
 H     5.540501     3.639662    -0.221039
 C     5.427805     1.390124     2.328978
 H     6.049320     0.995720     3.137900
 C     5.944279     2.364249     1.477876
 H     6.964205     2.729165     1.620663
 C     4.409426    -1.243468    -0.682272
 H     4.616682    -0.167030    -0.795956
 C     4.475187    -1.923464    -2.036156
 H     3.754228    -1.475271    -2.730293
 H     4.244844    -2.995201    -1.934018
 H     5.482599    -1.822502    -2.467993
 C     5.383725    -1.847589     0.306187
 H     5.350631    -1.320043     1.267291
 H     5.144707    -2.908824     0.474552
 H     6.409306    -1.778857    -0.085937
 C     1.422008     0.786155    -2.791801
 H     0.381955     0.748111    -2.431671
 C     1.581814    -0.177590    -3.948828
 H     1.338304    -1.200126    -3.625548
 H     2.613591    -0.162427    -4.333029
 H     0.902497     0.092251    -4.771748
 C     1.767111     2.216827    -3.149018
 H     1.592136     2.881221    -2.290191
 H     2.824845     2.300045    -3.442639
 H     1.144944     2.566339    -3.986645
