  84
scf done:    -2849.737788
 C    -0.584342    -3.710764    -1.280828
 H    -1.125666    -4.403001    -0.628220
 H    -1.100352    -3.477606    -2.217072
 C     0.833541    -3.692190    -1.248678
 H     1.357858    -4.379283    -0.576173
 H     1.393902    -3.435690    -2.151861
 H     0.129261    -1.320924    -1.739227
Rh     0.087279    -1.930067    -0.266214
 C    -2.155046     0.305558    -1.640741
 C    -3.380384    -1.340420     0.406397
 C    -1.690560     0.763691     1.264818
 C     2.372937     0.015606     1.695830
 C     3.424080    -0.817427    -0.814404
 C     1.404030     1.210974    -0.798039
 P     1.813944    -0.408252    -0.042853
 P    -1.782465    -0.544953    -0.022487
 C     0.128569    -2.731588     1.463302
 O     0.196233    -3.223174     2.499157
 H    -2.180408    -0.550230    -2.334327
 H    -1.229564     0.851447    -1.879278
 C    -3.360906     1.178352    -1.831993
 C    -3.202201     2.541938    -2.120148
 H    -2.195999     2.960081    -2.202145
 C    -4.662797     0.662623    -1.771137
 H    -4.816036    -0.401351    -1.583400
 C    -4.306139     3.371444    -2.305217
 H    -4.154652     4.430200    -2.529110
 C    -5.767532     1.491783    -1.952611
 H    -6.773036     1.067949    -1.894815
 C    -5.595657     2.850537    -2.212236
 H    -6.463651     3.498565    -2.354441
 C    -4.320636    -0.754990     1.262615
 H    -4.100744     0.197127     1.748740
 C    -3.689873    -2.565075    -0.199932
 H    -2.949929    -3.038896    -0.846887
 C    -5.548084    -1.368277     1.500203
 H    -6.289444    -0.923635     2.166497
 C    -4.918275    -3.180925     0.015752
 H    -5.173088    -4.132707    -0.453859
 C    -5.834139    -2.570799     0.866493
 F    -7.008172    -3.157408     1.084305
 C    -1.056865     0.430474     2.470044
 H    -0.652817    -0.574396     2.605064
 C    -2.211506     2.056340     1.124471
 H    -2.732751     2.344050     0.212573
 C    -0.919240     1.358359     3.498169
 H    -0.425843     1.103343     4.437833
 C    -2.071422     3.001196     2.138803
 H    -2.467558     4.012785     2.031334
 C    -1.420480     2.642345     3.312425
 F    -1.281166     3.541275     4.281947
 H     2.373046    -0.954363     2.215377
 H     1.568010     0.611098     2.150738
 C     3.711095     0.675586     1.807823
 C     3.862816     2.064146     1.706937
 H     2.981890     2.700296     1.603413
 C     4.863249    -0.108958     1.952022
 H     4.763687    -1.194757     2.029356
 C     5.128566     2.647178     1.729097
 H     5.224473     3.732693     1.647988
 C     6.128154     0.470314     1.974838
 H     7.012029    -0.163055     2.080868
 C     6.266535     1.852746     1.856810
 H     7.258498     2.310309     1.871236
 C     4.318953     0.163492    -1.263498
 H     4.034030     1.217117    -1.241323
 C     3.828292    -2.156294    -0.820550
 H     3.130111    -2.919593    -0.471401
 C     5.585891    -0.184376    -1.718061
 H     6.295183     0.568662    -2.065441
 C     5.098919    -2.518118    -1.260844
 H     5.428556    -3.558534    -1.270858
 C     5.960447    -1.523373    -1.706152
 F     7.175315    -1.859667    -2.132871
 C     1.441751     1.323801    -2.197167
 H     1.821924     0.492509    -2.795950
 C     0.881596     2.276863    -0.059187
 H     0.801037     2.215110     1.026867
 C     0.982031     2.467221    -2.840248
 H     1.000542     2.559751    -3.927516
 C     0.413209     3.428815    -0.689004
 H    -0.009829     4.256034    -0.116868
 C     0.468183     3.507058    -2.072219
 F    -0.012959     4.589818    -2.682823
