 110
scf done:    -2393.689757
 C    -0.849922    -0.258284    -3.585131
 H    -1.407682    -1.153586    -3.878192
 H    -1.399142     0.676500    -3.735616
 C     0.568264    -0.256354    -3.674410
 H     1.085502    -1.150343    -4.036454
 H     1.093579     0.678795    -3.889119
 H    -0.000804     1.205245    -1.663913
Rh    -0.014113    -0.394691    -1.604799
 C    -2.619815     1.603206    -0.453053
 C    -3.275528    -1.275485    -0.773992
 C    -1.779719    -0.354408     1.519535
 C     2.654527    -1.510488     0.390498
 C     3.241317     0.790340    -1.402296
 C     1.773014     1.153634     1.057662
 P     1.901098     0.015267    -0.389727
 P    -1.908748    -0.115524    -0.306776
 C     0.025700    -2.289850    -1.517214
 O     0.061172    -3.437632    -1.441553
 H    -1.899140     2.231362     0.094134
 H    -2.498583     1.861580    -1.512733
 C    -4.014807     1.838432     0.034735
 C    -4.251489     2.023608     1.402958
 H    -3.398901     2.057670     2.086342
 C    -5.109271     1.846565    -0.856538
 C    -4.916886     1.730005    -2.341949
 H    -4.373768     0.816643    -2.625855
 H    -4.336071     2.578867    -2.738470
 H    -5.884220     1.716573    -2.862191
 C    -5.541355     2.156620     1.908305
 H    -5.698122     2.289706     2.981241
 C    -6.399492     1.983826    -0.333007
 H    -7.249216     1.983236    -1.021447
 C    -6.625332     2.122447     1.034696
 H    -7.645380     2.220559     1.413290
 H    -2.775864    -2.238873    -0.969796
 H    -3.610392    -0.928387    -1.763679
 C    -4.442006    -1.479647     0.183981
 H    -4.060886    -1.913047     1.123867
 H    -4.897613    -0.515396     0.457710
 C    -5.542150    -2.402090    -0.351087
 H    -5.068395    -3.359113    -0.641884
 C    -6.556526    -2.691660     0.749757
 H    -6.077538    -3.148892     1.629811
 H    -7.346295    -3.375648     0.402092
 H    -7.042704    -1.759132     1.082112
 C    -6.236069    -1.825822    -1.580866
 H    -7.033292    -2.497109    -1.935840
 H    -5.541029    -1.672845    -2.419984
 H    -6.695669    -0.852106    -1.343371
 H    -2.766743    -0.227711     1.993271
 H    -1.136959     0.461814     1.885606
 C    -1.184834    -1.712785     1.860238
 H    -1.805644    -2.506595     1.409902
 H    -0.200816    -1.802089     1.368206
 C    -1.034287    -2.011236     3.353580
 H    -2.035311    -1.917312     3.815486
 C    -0.555673    -3.444677     3.554041
 H    -1.240317    -4.167589     3.084122
 H    -0.476619    -3.698580     4.622388
 H     0.439997    -3.590685     3.102386
 C    -0.103573    -1.028223     4.054398
 H    -0.009020    -1.265351     5.125188
 H    -0.460606     0.009438     3.978193
 H     0.909286    -1.070022     3.618103
 H     1.939652    -1.774203     1.186670
 H     2.561766    -2.297315    -0.369306
 C     4.046417    -1.430593     0.934975
 C     4.269031    -0.881272     2.204192
 H     3.409069    -0.577934     2.806941
 C     5.152223    -1.876401     0.179027
 C     4.976089    -2.543400    -1.155390
 H     4.439148    -1.907168    -1.874197
 H     4.397763    -3.477407    -1.064719
 H     5.949016    -2.795775    -1.598362
 C     5.554641    -0.709686     2.709188
 H     5.699850    -0.268876     3.698163
 C     6.437620    -1.699786     0.702000
 H     7.295539    -2.038264     0.114327
 C     6.648675    -1.109037     1.946025
 H     7.665291    -0.978402     2.324003
 H     2.710675     1.510200    -2.047106
 H     3.575162    -0.004801    -2.086855
 C     4.409956     1.469030    -0.698993
 H     4.027329     2.315892    -0.105332
 H     4.884801     0.785205     0.021492
 C     5.491462     2.003240    -1.643744
 H     4.999864     2.669709    -2.377933
 C     6.503516     2.829456    -0.857657
 H     6.018952     3.666544    -0.330885
 H     7.281000     3.249065    -1.514885
 H     7.005898     2.205445    -0.099581
 C     6.192493     0.888619    -2.413159
 H     6.976443     1.294642    -3.071049
 H     5.498098     0.317628    -3.047499
 H     6.670911     0.180743    -1.716076
 H     2.764543     1.256234     1.528049
 H     1.124037     0.639362     1.784024
 C     1.212902     2.520748     0.696430
 H     1.842578     2.976340    -0.086868
 H     0.223355     2.391902     0.227437
 C     1.104369     3.506864     1.861884
 H     2.110908     3.607571     2.310505
 C     0.678700     4.878142     1.349610
 H     1.378319     5.259204     0.589583
 H     0.629748     5.616772     2.164616
 H    -0.320451     4.828270     0.885003
 C     0.155208     3.020291     2.951106
 H     0.091130     3.746219     3.776205
 H     0.474462     2.060279     3.382860
 H    -0.864359     2.887981     2.549817
