 102
scf done:    -3061.203704
 C     0.388817    -4.445413    -0.867847
 H     1.063789    -4.687742    -1.693526
 H     0.745952    -4.760966     0.115460
 C    -0.996743    -4.294075    -1.103858
 H    -1.397861    -4.419841    -2.113344
 H    -1.714538    -4.497019    -0.305344
 H    -0.408789    -2.610584     0.703835
Rh    -0.109306    -2.340898    -0.831504
 C     1.752277    -0.893204     1.731361
 O     3.151812    -1.723643    -0.536954
 O     1.625435     0.356261    -0.688484
 C    -1.779888     0.635245    -1.663745
 O    -3.258860    -1.571907    -1.183197
 O    -2.199322    -0.421243     0.881743
 P    -1.825644    -0.895154    -0.650470
 P     1.655701    -1.183270    -0.070796
 C     0.261455    -2.036380    -2.698387
 O     0.488594    -1.817783    -3.798281
 C     1.151514     0.242241     2.275293
 H     0.750560     0.994831     1.595864
 C     2.180297    -1.919045     2.597145
 O     2.685133    -3.018495     2.008850
 C     3.007215    -4.137720     2.787630
 H     3.833139    -3.925055     3.488822
 H     3.327330    -4.919150     2.087711
 H     2.134139    -4.498244     3.357927
 C     1.039269     0.407849     3.654592
 H     0.577916     1.310168     4.060933
 C     2.069395    -1.758074     3.981626
 H     2.413453    -2.539756     4.659054
 C     1.507711    -0.592012     4.501363
 H     1.427860    -0.477023     5.585115
 C     4.320851    -1.017086    -0.410922
 C     5.037578    -1.019744     0.782587
 H     4.676953    -1.620875     1.616665
 C     4.792936    -0.298999    -1.509923
 H     4.222561    -0.323769    -2.440026
 C     6.194295    -0.248511     0.887023
 H     6.746352    -0.241974     1.831121
 C     5.947287     0.463384    -1.389973
 H     6.294901     1.043475    -2.249186
 C     6.659294     0.520187    -0.184258
 C     7.867637     1.400540    -0.050069
 H     8.435703     1.172343     0.862923
 H     7.574555     2.462917    -0.002793
 H     8.546377     1.290597    -0.909643
 C     2.401635     1.478334    -0.646504
 C     2.316960     2.307569    -1.766759
 H     1.665716     2.004263    -2.588270
 C     3.218477     1.848794     0.422752
 H     3.311298     1.208647     1.297639
 C     3.055106     3.485481    -1.821456
 H     2.979772     4.119356    -2.709807
 C     3.955143     3.027094     0.346528
 H     4.603847     3.292255     1.186274
 C     3.896293     3.868058    -0.770052
 C     4.736010     5.110161    -0.851501
 H     4.301248     5.848223    -1.541173
 H     5.751197     4.880282    -1.217511
 H     4.847551     5.588561     0.132970
 C    -2.185605     0.506117    -2.996603
 H    -2.596376    -0.450928    -3.327167
 C    -1.199183     1.852148    -1.249538
 O    -0.762248     1.932671     0.018186
 C    -0.479515     3.192609     0.571417
 H     0.432161     3.632771     0.133984
 H    -0.320650     3.029238     1.644768
 H    -1.332712     3.879822     0.444561
 C    -2.075708     1.560403    -3.899399
 H    -2.403510     1.434111    -4.932939
 C    -1.107014     2.919352    -2.150661
 H    -0.669996     3.865046    -1.830986
 C    -1.542897     2.770481    -3.464892
 H    -1.452361     3.612198    -4.155817
 C    -4.513217    -1.145345    -0.836395
 C    -5.279047    -0.398081    -1.729219
 H    -4.874079    -0.149694    -2.710478
 C    -5.035056    -1.483785     0.413654
 H    -4.426613    -2.078421     1.096618
 C    -6.548163     0.037751    -1.350771
 H    -7.139530     0.628893    -2.055566
 C    -6.299017    -1.036856     0.777021
 H    -6.690308    -1.293742     1.765323
 C    -7.076563    -0.258588    -0.090955
 C    -8.425452     0.246685     0.331895
 H    -8.972567     0.690891    -0.511574
 H    -8.330840     1.019362     1.112610
 H    -9.045395    -0.561151     0.750486
 C    -2.788359     0.676947     1.441577
 C    -2.451221     0.926392     2.772546
 H    -1.748884     0.250833     3.263184
 C    -3.685950     1.519543     0.787984
 H    -3.973478     1.333211    -0.245703
 C    -2.997318     2.018985     3.437295
 H    -2.721062     2.199762     4.480447
 C    -4.217531     2.613115     1.467736
 H    -4.917622     3.266337     0.939120
 C    -3.889695     2.889439     2.799057
 C    -4.500695     4.050356     3.529681
 H    -3.791293     4.499236     4.241076
 H    -5.385639     3.737079     4.109142
 H    -4.828341     4.837012     2.834538
