  90
scf done:    -2904.160923
 C    -0.423850     0.331735    -4.013500
 H    -1.023326    -0.423915    -4.528291
 H    -0.906844     1.307018    -3.916832
 C     0.979107     0.229070    -3.995073
 H     1.474973    -0.609175    -4.492147
 H     1.595229     1.124391    -3.880673
 H     0.317232     1.177440    -1.702515
Rh     0.196163    -0.368895    -2.045945
 O    -1.613556     0.692946     0.598936
 O    -2.899412     0.546801    -1.602715
 O    -2.300530    -1.542589    -0.199744
 O     2.069658    -0.408012     0.812868
 O     3.035816    -1.733582    -1.156330
 O     3.136586     0.793770    -1.011974
 P     2.067254    -0.431474    -0.841362
 P    -1.645011    -0.179114    -0.810171
 C     0.048465    -2.250656    -2.451194
 O    -0.038960    -3.370160    -2.656305
 C    -1.187361     1.978589     0.763658
 C    -1.202034     2.919541    -0.265621
 H    -1.566312     2.637624    -1.254578
 C    -0.766328     2.335155     2.046846
 H    -0.776035     1.579283     2.832187
 C    -0.761800     4.229171    -0.032066
 C    -0.737393     5.216406    -1.161924
 H    -1.696118     5.229453    -1.702383
 H    -0.530326     6.234556    -0.804774
 H     0.043217     4.951222    -1.893516
 C    -0.350912     3.639258     2.283919
 H    -0.023174     3.925388     3.286174
 C    -0.340286     4.580293     1.253277
 H    -0.005384     5.601935     1.449414
 C    -4.221806     0.625063    -1.232036
 C    -4.625157     1.191764    -0.022687
 H    -3.884266     1.583067     0.673091
 C    -5.161739     0.132510    -2.136361
 H    -4.809593    -0.291557    -3.078536
 C    -5.981545     1.220198     0.291874
 H    -6.296987     1.644869     1.247509
 C    -6.515428     0.178209    -1.814537
 H    -7.251169    -0.212649    -2.521538
 C    -6.929748     0.712468    -0.595012
 H    -7.990887     0.738290    -0.338197
 C    -3.334465    -1.692124     0.702706
 C    -4.523005    -2.260755     0.251224
 H    -4.612806    -2.538633    -0.799647
 C    -3.173216    -1.332664     2.038858
 H    -2.223612    -0.915425     2.367890
 C    -5.578356    -2.434775     1.141622
 H    -6.516878    -2.864598     0.784484
 C    -4.236613    -1.514308     2.920357
 H    -4.116439    -1.228569     3.968418
 C    -5.442119    -2.056552     2.477293
 H    -6.273480    -2.190179     3.172933
 C     1.265606    -1.146925     1.629296
 C     0.997484    -0.606423     2.887368
 H     1.425976     0.369520     3.124759
 C     0.763975    -2.397785     1.269249
 H     0.993985    -2.830590     0.295203
 C     0.213870    -1.302746     3.808756
 C    -0.116283    -0.697372     5.142634
 H     0.621280     0.063128     5.435794
 H    -1.104321    -0.206100     5.116889
 H    -0.156861    -1.460860     5.933252
 C    -0.021412    -3.092190     2.188535
 H    -0.425931    -4.068571     1.913066
 C    -0.292898    -2.558081     3.443620
 H    -0.913514    -3.116488     4.148784
 C     4.322319    -1.841926    -0.680608
 C     4.559868    -2.257501     0.628732
 H     3.718376    -2.496391     1.280670
 C     5.379050    -1.539912    -1.538253
 H     5.156187    -1.212480    -2.554946
 C     5.873754    -2.357434     1.082014
 H     6.063400    -2.678100     2.108990
 C     6.688446    -1.648775    -1.075646
 H     7.518376    -1.411541    -1.745433
 C     6.939693    -2.051949     0.236312
 H     7.967115    -2.132100     0.598100
 C     3.584716     1.654653    -0.034239
 C     4.890261     1.523685     0.431771
 H     5.515584     0.715828     0.048479
 C     2.747297     2.661912     0.441428
 H     1.722684     2.737709     0.071234
 C     5.364729     2.423553     1.383973
 H     6.388894     2.324123     1.751487
 C     3.233167     3.551236     1.396973
 H     2.575308     4.338512     1.770903
 C     4.540620     3.438099     1.869687
 H     4.916583     4.139979     2.617549
