  58
scf done:    -1836.933143
 C    -3.382891    -2.074924    -0.669825
 H    -3.880259    -2.576590     0.166413
 H    -4.010789    -1.341201    -1.183896
 C    -2.370657    -2.761632    -1.394535
 H    -2.095820    -3.780830    -1.104832
 H    -2.232829    -2.550232    -2.459080
 H    -1.728241    -0.305199    -1.403761
Rh    -1.465167    -1.256191    -0.153522
 C    -0.815973     2.120024     0.619394
 C    -3.618170     1.403087     0.641707
 C    -1.967628     0.645694     2.782941
 C     2.052726    -0.690903     0.293574
 C     1.340514    -2.698312    -1.637309
 C     0.994802     0.075737    -2.268572
 P     0.723633    -1.128569    -0.911751
 P    -1.947046     0.710027     0.945129
 C    -1.198620    -2.404189     1.344654
 O    -1.052573    -3.093110     2.253490
 C     0.157408     2.503113     1.545175
 H     0.181291     2.029834     2.527389
 C    -0.808817     2.749469    -0.645532
 O    -1.757980     2.351313    -1.515970
 C    -1.735440     2.821761    -2.833131
 H    -1.909636     3.910965    -2.883937
 H    -2.546533     2.305159    -3.361556
 H    -0.779260     2.587745    -3.332278
 C     1.122827     3.464011     1.243976
 H     1.877952     3.728502     1.986607
 C     0.151070     3.718398    -0.951506
 H     0.153036     4.203661    -1.927730
 C     1.115865     4.068702    -0.006519
 H     1.864218     4.823322    -0.260028
 H    -3.749185     1.553437    -0.435679
 H    -4.352610     0.662257     0.989675
 H    -3.766813     2.355773     1.172487
 H    -2.172017     1.627055     3.237862
 H    -2.761749    -0.060542     3.066177
 H    -1.022096     0.247431     3.175838
 C     1.681252    -0.480931     1.620958
 H     0.623323    -0.595370     1.864903
 C     3.417989    -0.546924    -0.041056
 O     3.766136    -0.773830    -1.327700
 C     5.105795    -0.642311    -1.713020
 H     5.479590     0.383918    -1.552578
 H     5.146382    -0.871575    -2.785507
 H     5.759167    -1.348675    -1.172063
 C     2.603706    -0.132779     2.606833
 H     2.277379     0.019598     3.637793
 C     4.349789    -0.187950     0.938728
 H     5.403172    -0.070391     0.684578
 C     3.939144     0.017847     2.255788
 H     4.681715     0.294484     3.008374
 H     1.308462    -3.473649    -0.858716
 H     0.646026    -2.993239    -2.437294
 H     2.361147    -2.602116    -2.031263
 H     2.019335     0.031561    -2.658196
 H     0.266819    -0.146087    -3.061534
 H     0.789706     1.080813    -1.875244
