  86
scf done:    -4441.234294
 C    -1.187680    -2.687504    -2.555224
 H    -1.848612    -3.467179    -2.164092
 H    -1.653164    -2.024314    -3.289058
 C     0.209112    -2.904196    -2.580549
 H     0.626616    -3.840842    -2.199312
 H     0.820191    -2.411484    -3.341461
 H    -0.123816    -0.408731    -2.107004
Rh    -0.266682    -1.520857    -0.977901
 O    -2.679352     0.565657    -1.752124
 C    -3.274268    -0.527940     0.654045
 C    -1.300960     1.524871     0.374410
 O     1.709136    -0.054465     1.274095
 C     2.909270    -2.203617     0.104781
 C     2.783080     0.340066    -1.196904
 P     1.760582    -0.824263    -0.231740
 P    -1.862721    -0.032887    -0.396161
 C    -0.449793    -2.858383     0.380987
 O    -0.538422    -3.647334     1.206947
 C    -3.992524     0.959129    -1.693314
 C    -4.989926    -0.001366    -1.868008
 H    -4.689647    -1.030690    -2.074351
 C    -4.331246     2.288549    -1.444796
 H    -3.547828     3.035494    -1.315979
 C    -6.338950     0.331561    -1.733774
 C    -7.397944    -0.729088    -1.810101
 H    -7.615605    -1.126529    -0.804103
 H    -8.339643    -0.333380    -2.217237
 H    -7.079111    -1.574900    -2.435693
 C    -5.678334     2.634229    -1.345056
 H    -5.953189     3.674395    -1.153478
 C    -6.671750     1.667665    -1.472580
 H    -7.722694     1.950544    -1.370877
 C    -3.698386    -1.858431     0.574583
 H    -3.084169    -2.582591     0.033592
 C    -4.077089     0.401334     1.329533
 H    -3.769229     1.446431     1.395730
 C    -4.911020    -2.257351     1.127397
 H    -5.250695    -3.291414     1.053237
 C    -5.292825     0.018516     1.883234
 H    -5.933114     0.744938     2.385465
 C    -5.709087    -1.307115     1.761304
Cl    -7.255651    -1.773362     2.383030
 C    -1.031331     1.574512     1.747459
 H    -1.197647     0.691994     2.370018
 C    -1.026423     2.647821    -0.412248
 H    -1.208117     2.606478    -1.488728
 C    -0.553669     2.739741     2.336070
 H    -0.347975     2.783648     3.406346
 C    -0.542819     3.820530     0.164216
 H    -0.339514     4.702845    -0.444885
 C    -0.326023     3.862089     1.539916
Cl     0.253783     5.321422     2.270966
 C     2.697123     0.786218     1.723187
 C     2.701116     2.115950     1.303178
 H     1.912305     2.452031     0.628356
 C     3.688378     0.314633     2.584620
 H     3.674185    -0.724460     2.913147
 C     3.720347     2.989368     1.692466
 C     3.764433     4.388906     1.152591
 H     4.089172     4.388822     0.098663
 H     2.774216     4.864935     1.194682
 H     4.469295     5.015372     1.717143
 C     4.690941     1.188307     2.999887
 H     5.470035     0.829743     3.677064
 C     4.714995     2.507521     2.551711
 H     5.518176     3.176027     2.872251
 C     2.884671    -2.842236     1.349843
 H     2.257538    -2.441872     2.149583
 C     3.686839    -2.752186    -0.922839
 H     3.701181    -2.281184    -1.909093
 C     3.640375    -3.987971     1.578514
 H     3.624323    -4.485030     2.549720
 C     4.446902    -3.896876    -0.706262
 H     5.059058    -4.321785    -1.503317
 C     4.422323    -4.507366     0.547807
Cl     5.368099    -5.930115     0.824367
 C     4.157363     0.479809    -0.954594
 H     4.670244    -0.214922    -0.286374
 C     2.148514     1.255229    -2.042191
 H     1.079524     1.141603    -2.238398
 C     4.876717     1.525031    -1.520831
 H     5.940770     1.648386    -1.314921
 C     2.854244     2.310932    -2.610467
 H     2.358033     3.035129    -3.258240
 C     4.213067     2.445896    -2.331021
Cl     5.086370     3.792450    -2.978456
