 100
scf done:    -2859.387424
 C    -0.374363     1.555118    -3.054251
 H    -0.735259     1.036229    -3.947531
 H    -1.053059     2.326263    -2.679551
 C     1.015259     1.683533    -2.829196
 H     1.723026     1.262956    -3.550335
 H     1.394226     2.539935    -2.266252
 H    -0.022754     1.382593    -0.499605
Rh     0.221897     0.167801    -1.493481
 C    -3.100929     0.870488    -0.658754
 C    -2.633444    -1.813217    -1.613813
 C    -1.975893    -1.133861     1.110076
 C     2.026341    -1.663284     0.993875
 C     3.588419    -0.585650    -1.210555
 C     2.664597     1.114402     0.968386
 P     2.066983    -0.231797    -0.177793
 P    -1.811050    -0.451792    -0.628643
 C     0.493963    -1.326692    -2.640761
 O     0.667557    -2.249177    -3.306080
 H    -3.995343     0.509356    -0.122629
 H    -3.383060     0.963916    -1.720544
 C    -2.657832     2.223863    -0.113317
 H    -2.170484     2.093861     0.862434
 H    -1.880156     2.643077    -0.772192
 C    -3.790569     3.237681     0.052282
 H    -4.557658     2.774687     0.702235
 C    -3.270891     4.481227     0.764819
 H    -2.847260     4.229254     1.749837
 H    -4.069555     5.222965     0.920508
 H    -2.477488     4.967384     0.172056
 C    -4.449194     3.596644    -1.274720
 H    -5.253742     4.335205    -1.134815
 H    -4.892509     2.718046    -1.767961
 H    -3.712433     4.033581    -1.969882
 H    -2.659230    -1.424078    -2.643733
 H    -1.913486    -2.646360    -1.616458
 C    -3.983368    -2.273753    -1.163142
 C    -4.117191    -3.376968    -0.308171
 H    -3.225257    -3.934095    -0.008057
 C    -5.150834    -1.602453    -1.553017
 H    -5.080348    -0.754056    -2.237553
 C    -5.362111    -3.789330     0.160394
 H    -5.468805    -4.650024     0.822980
 C    -6.403801    -1.999488    -1.095180
 H    -7.314955    -1.481476    -1.399854
 C    -6.493522    -3.088045    -0.235993
 F    -7.689131    -3.472554     0.207452
 H    -2.899405    -1.729845     1.152558
 H    -1.124483    -1.814855     1.258023
 C    -2.017690    -0.064972     2.154452
 C    -0.853489     0.591857     2.569348
 H     0.105670     0.263790     2.169832
 C    -3.242738     0.373477     2.673014
 H    -4.164051    -0.134138     2.375408
 C    -0.902173     1.677461     3.438822
 H     0.001016     2.202191     3.756378
 C    -3.313728     1.461025     3.539292
 H    -4.266327     1.818247     3.934365
 C    -2.139741     2.110823     3.899224
 F    -2.201658     3.170969     4.703995
 H     1.401926    -1.344459     1.845808
 H     3.036749    -1.843161     1.394744
 C     1.420701    -2.909835     0.367817
 H     0.462380    -2.621018    -0.095582
 H     2.045826    -3.265167    -0.471417
 C     1.185206    -4.068388     1.338079
 H     0.618361    -3.664935     2.199454
 C     0.328591    -5.142884     0.678337
 H    -0.638694    -4.734655     0.343635
 H     0.123009    -5.976379     1.367466
 H     0.834763    -5.559504    -0.208221
 C     2.488581    -4.655076     1.868962
 H     2.297169    -5.463935     2.590771
 H     3.108887    -3.899325     2.373693
 H     3.086306    -5.080877     1.045280
 H     3.258673    -1.324375    -1.956559
 H     3.769719     0.347773    -1.765586
 C     4.811156    -1.062093    -0.490882
 C     5.783969    -0.172631    -0.014535
 H     5.684884     0.895778    -0.216878
 C     5.005857    -2.429420    -0.244813
 H     4.278202    -3.150976    -0.623425
 C     6.894877    -0.617710     0.698317
 H     7.653994     0.075363     1.065131
 C     6.107492    -2.894506     0.466358
 H     6.256919    -3.958771     0.657203
 C     7.039623    -1.977793     0.937265
 F     8.096632    -2.413029     1.620420
 H     2.060652     1.015828     1.882428
 H     3.704565     0.887479     1.251608
 C     2.524904     2.497167     0.408366
 C     1.346873     3.228886     0.613555
 H     0.547283     2.805134     1.223695
 C     3.527337     3.076255    -0.377383
 H     4.461308     2.537572    -0.549474
 C     1.165149     4.485368     0.045396
 H     0.246159     5.053284     0.201288
 C     3.365643     4.334345    -0.953930
 H     4.145371     4.787632    -1.568207
 C     2.178443     5.021729    -0.739874
 F     2.011607     6.223890    -1.289598
