  98
scf done:    -2760.405907
 C     1.020924    -3.139462    -1.463103
 H     1.503287    -3.093679    -2.443813
 H     1.692673    -3.434544    -0.652637
 C    -0.363887    -3.420233    -1.384289
 H    -0.944399    -3.575855    -2.299138
 H    -0.749852    -3.959296    -0.515539
 H     0.059667    -1.930130     0.502028
Rh    -0.039865    -1.332124    -0.951418
 C     2.036299    -0.709055     1.608528
 C     3.389339    -0.193682    -1.000888
 C     1.807555     1.804595     0.153242
 C    -1.712976     1.610626    -0.418320
 C    -3.511517    -0.555895    -1.217275
 C    -2.631483    -0.467955     1.479637
 P    -1.971547    -0.205999    -0.231777
 P     1.779856    -0.043941    -0.090621
 C    -0.289350    -0.820225    -2.776389
 O    -0.493208    -0.607569    -3.887109
 C     1.143223    -0.322816     2.613824
 H     0.358295     0.399205     2.377195
 C     2.948734    -1.745991     1.895552
 O     3.709468    -2.181697     0.875999
 C     4.702991    -3.140587     1.093700
 H     5.438836    -2.803308     1.844619
 H     5.212268    -3.277642     0.131419
 H     4.277339    -4.106705     1.417145
 C     1.200729    -0.867493     3.895131
 H     0.487299    -0.542028     4.654819
 C     3.015739    -2.288891     3.183892
 H     3.734829    -3.076978     3.408010
 C     2.151119    -1.841773     4.181085
 H     2.213775    -2.279002     5.180481
 C     3.323363    -0.800328    -2.257800
 H     2.356777    -1.174430    -2.595542
 C     4.628250     0.307074    -0.540207
 C     4.815826     0.994401     0.779504
 H     4.209708     0.545876     1.576906
 H     4.523542     2.054271     0.716155
 H     5.871150     0.955632     1.084930
 C     4.446008    -0.931076    -3.070785
 H     4.358729    -1.408246    -4.049612
 C     5.747313     0.156989    -1.368149
 H     6.711149     0.532211    -1.012236
 C     5.670046    -0.450118    -2.619228
 H     6.567038    -0.544731    -3.236418
 C     1.950062     2.398053     1.415407
 H     2.014133     1.771595     2.303906
 C     1.780345     2.642109    -0.986474
 C     1.673976     2.117758    -2.384755
 H     1.016758     1.241104    -2.437147
 H     2.658780     1.804396    -2.765676
 H     1.275579     2.888932    -3.057791
 C     2.067725     3.775568     1.570642
 H     2.196010     4.197805     2.570714
 C     1.903912     4.025940    -0.807135
 H     1.881419     4.665002    -1.693917
 C     2.049890     4.599685     0.449341
 H     2.148143     5.683211     0.551295
 C    -1.648365     2.150263    -1.708692
 H    -1.732137     1.485218    -2.569814
 C    -1.471862     2.482362     0.665763
 O    -1.371961     1.925204     1.887541
 C    -1.375197     2.731253     3.032153
 H    -0.465126     3.351551     3.095903
 H    -1.408969     2.045730     3.888865
 H    -2.264329     3.384283     3.061936
 C    -1.491153     3.516077    -1.929877
 H    -1.465844     3.902571    -2.950658
 C    -1.333862     3.856734     0.450845
 H    -1.166741     4.526142     1.293871
 C    -1.360869     4.371367    -0.841444
 H    -1.241298     5.446525    -0.992633
 C    -4.148103     0.408141    -2.010347
 H    -3.781602     1.433469    -2.019201
 C    -4.063841    -1.857943    -1.162240
 C    -3.534065    -2.931623    -0.262115
 H    -3.954544    -2.831962     0.751404
 H    -2.442581    -2.871641    -0.169717
 H    -3.800165    -3.927193    -0.644346
 C    -5.271430     0.106039    -2.773596
 H    -5.737724     0.885731    -3.380457
 C    -5.190816    -2.141998    -1.943954
 H    -5.605567    -3.153107    -1.904704
 C    -5.792339    -1.183604    -2.751594
 H    -6.668475    -1.441402    -3.351396
 C    -1.944154    -1.371276     2.292323
 H    -1.052552    -1.855262     1.886528
 C    -3.798961     0.158994     1.975310
 C    -4.630474     1.129643     1.189282
 H    -5.286993     0.603277     0.479143
 H    -4.020788     1.824931     0.597600
 H    -5.268426     1.719301     1.862726
 C    -2.366898    -1.663598     3.586199
 H    -1.799907    -2.372162     4.194358
 C    -4.205859    -0.147329     3.279467
 H    -5.102963     0.340181     3.671649
 C    -3.507720    -1.044693     4.084542
 H    -3.860410    -1.257826     5.096869
