  82
scf done:    -2151.249485
 C     3.888864    -1.819229     0.885112
 H     4.615268    -1.820333     0.066289
 H     4.198732    -1.232005     1.754083
 C     3.043865    -2.948103     1.063463
 H     3.134651    -3.796683     0.378018
 H     2.708811    -3.221516     2.067636
 H     1.712338    -0.904767     1.788427
Rh     1.894583    -1.309034     0.259653
 O     0.706189     1.596765     1.162980
 C     3.255892     1.975504     0.347015
 C     1.155297     1.565559    -1.598824
 O    -1.235007    -0.653763    -0.533668
 C    -0.890420    -3.355228    -0.499681
 C    -1.202459    -1.894061     1.924390
 P    -0.323297    -1.809160     0.318351
 P     1.765418     0.955906     0.025564
 C     2.149384    -1.793319    -1.570922
 O     2.281255    -2.073597    -2.676685
 C    -0.073040     2.703129     1.010120
 C    -1.286841     2.597551     0.327725
 H    -1.561000     1.627145    -0.085643
 C     0.313800     3.917368     1.578000
 H     1.253886     3.975161     2.129505
 C    -2.119572     3.707157     0.169506
 C    -3.400861     3.588096    -0.604756
 H    -3.731837     2.541721    -0.673968
 H    -4.206360     4.180761    -0.145836
 H    -3.271503     3.959940    -1.634958
 C    -0.517567     5.026409     1.429211
 H    -0.224026     5.982322     1.870221
 C    -1.717574     4.928143     0.727914
 H    -2.357006     5.808201     0.619481
 H     2.988909     3.044817     0.294808
 H     3.536343     1.756426     1.390715
 C     4.406702     1.640209    -0.593492
 H     4.120756     1.881091    -1.632120
 H     4.572206     0.550384    -0.570067
 C     5.691785     2.371495    -0.238403
 H     5.556547     3.464377    -0.275803
 H     6.025062     2.114224     0.779579
 H     6.506186     2.111660    -0.931592
 H     1.710504     0.956123    -2.333088
 H     0.117014     1.198839    -1.658145
 C     1.254134     3.044325    -1.957949
 H     2.315057     3.331470    -2.049249
 H     0.838139     3.666130    -1.151381
 C     0.525209     3.357799    -3.255753
 H     0.917871     2.760137    -4.094207
 H    -0.549500     3.132409    -3.163850
 H     0.622114     4.420366    -3.525687
 C    -2.564778    -0.741804    -0.829173
 C    -3.525001    -0.317476     0.090897
 H    -3.199318     0.045637     1.067505
 C    -2.955413    -1.179498    -2.097759
 H    -2.189951    -1.490595    -2.810844
 C    -4.886691    -0.327821    -0.234842
 C    -5.898754     0.167274     0.757371
 H    -5.722493    -0.257997     1.757065
 H    -5.843413     1.263738     0.859565
 H    -6.922862    -0.087967     0.451802
 C    -4.307282    -1.197785    -2.424355
 H    -4.618593    -1.540545    -3.414105
 C    -5.266861    -0.778711    -1.502596
 H    -6.325663    -0.796663    -1.772870
 H    -1.992538    -3.407505    -0.472700
 H    -0.598768    -3.253359    -1.559144
 C    -0.265294    -4.614047     0.090306
 H    -0.595695    -4.738243     1.135597
 H     0.827940    -4.481225     0.133371
 C    -0.612128    -5.864420    -0.702715
 H    -1.701039    -6.027885    -0.742096
 H    -0.251737    -5.787699    -1.740964
 H    -0.155237    -6.760839    -0.256770
 H    -2.260130    -2.142881     1.727151
 H    -0.762690    -2.764323     2.442270
 C    -1.078349    -0.649779     2.791670
 H    -1.407838     0.235338     2.224384
 H    -0.012858    -0.465960     2.999167
 C    -1.866104    -0.760159     4.086627
 H    -2.943174    -0.898370     3.894371
 H    -1.528785    -1.618097     4.690382
 H    -1.751537     0.145682     4.700904
