 106
scf done:    -2989.337421
 C    -1.775612    -3.233878    -1.889363
 H    -2.491544    -3.878740    -1.369319
 H    -2.167665    -2.810137    -2.819051
 C    -0.385732    -3.486321    -1.758927
 H    -0.042841    -4.317288    -1.135073
 H     0.296123    -3.237533    -2.576647
 H    -0.568923    -0.993945    -1.975263
Rh    -0.881346    -1.738567    -0.609302
 C    -3.313639     0.642819    -1.844398
 C    -3.980582    -0.477780     0.596524
 C    -1.828035     1.408235     0.575063
 C     1.166026    -0.571328     1.905612
 C     2.586372    -1.994995    -0.149034
 C     1.776854     0.704429    -0.698646
 P     1.167305    -0.851227     0.055828
 P    -2.452132    -0.058346    -0.329233
 C    -1.198456    -2.672933     1.018419
 O    -1.355144    -3.248260     2.001690
 H    -3.939576    -0.206347    -2.160982
 H    -3.993194     1.429675    -1.483510
 C    -2.491824     1.134370    -2.995084
 C    -2.358565     2.505668    -3.251812
 H    -2.871449     3.226786    -2.609955
 C    -1.849523     0.232286    -3.848632
 H    -1.969087    -0.837852    -3.669805
 C    -1.583612     2.950719    -4.318701
 H    -1.491103     4.022002    -4.513643
 C    -1.046320     0.661376    -4.910729
 C    -0.317106    -0.343032    -5.753858
 H     0.112186     0.116530    -6.655114
 H     0.508485    -0.799716    -5.182975
 H    -0.981442    -1.162504    -6.067415
 C    -0.922580     2.036045    -5.137612
 H    -0.307797     2.392221    -5.968872
 C    -4.377973    -1.817235     0.709816
 H    -3.737008    -2.595264     0.289088
 C    -4.825298     0.506300     1.119998
 H    -4.545506     1.560695     1.043645
 C    -5.566500    -2.162001     1.335314
 H    -5.878048    -3.203837     1.429373
 C    -6.019189     0.176291     1.757963
 H    -6.645287     0.972095     2.162182
 C    -6.396720    -1.168198     1.870575
 O    -7.525875    -1.591384     2.468851
 C    -8.394766    -0.644370     3.023929
 H    -8.783910     0.053474     2.261542
 H    -9.235470    -1.202915     3.454473
 H    -7.908187    -0.059619     3.824504
 C    -1.876299     1.470945     1.978790
 H    -2.434122     0.715938     2.538698
 C    -1.088630     2.386165    -0.094222
 H    -1.006843     2.363525    -1.179543
 C    -1.208685     2.468504     2.674794
 H    -1.240209     2.513819     3.765276
 C    -0.401201     3.385396     0.591780
 H     0.189294     4.101352     0.020278
 C    -0.447900     3.424853     1.986730
 O     0.226292     4.318029     2.744308
 C     1.071295     5.230560     2.097878
 H     0.508616     5.906520     1.430367
 H     1.551985     5.826586     2.883920
 H     1.850058     4.714453     1.508639
 H     0.287559     0.067061     2.079138
 H     0.910606    -1.568600     2.297235
 C     2.366402    -0.022010     2.611610
 C     3.548669    -0.759666     2.747894
 H     3.607778    -1.774691     2.350475
 C     2.319691     1.271499     3.147938
 H     1.398550     1.848915     3.046565
 C     4.656063    -0.192142     3.375666
 H     5.577567    -0.772151     3.470292
 C     3.418188     1.851589     3.786002
 C     3.333829     3.246174     4.337940
 H     2.301517     3.621470     4.305904
 H     3.684668     3.287116     5.380819
 H     3.965268     3.941592     3.759915
 C     4.597345     1.102411     3.886247
 H     5.473119     1.533917     4.379594
 C     3.805394    -1.636457    -0.739490
 H     3.943076    -0.627796    -1.133299
 C     2.445304    -3.303480     0.323959
 H     1.493197    -3.619521     0.758522
 C     4.849794    -2.546341    -0.831398
 H     5.800644    -2.272277    -1.292439
 C     3.489477    -4.222029     0.255124
 H     3.338756    -5.229718     0.642989
 C     4.706834    -3.844677    -0.327237
 O     5.774745    -4.657562    -0.450839
 C     5.683518    -5.969144     0.028962
 H     4.892287    -6.541996    -0.486344
 H     6.651869    -6.445650    -0.170065
 H     5.489480    -5.997435     1.115976
 C     1.221618     1.148737    -1.908180
 H     0.431756     0.559662    -2.379228
 C     2.796122     1.478124    -0.129718
 H     3.293717     1.153070     0.782353
 C     1.634427     2.330923    -2.503112
 H     1.184661     2.672557    -3.436284
 C     3.211087     2.677725    -0.707066
 H     4.003365     3.248321    -0.221388
 C     2.619921     3.119327    -1.896335
 O     2.937512     4.270798    -2.521660
 C     3.919590     5.093516    -1.959577
 H     4.898119     4.585445    -1.898122
 H     4.014637     5.967035    -2.617078
 H     3.638570     5.438038    -0.947859
