  62
scf done:    -2137.757112
 C    -0.621458    -4.112771    -0.883928
 H    -0.837816    -4.783097    -0.047194
 H    -1.474264    -3.921200    -1.539583
 C     0.696663    -4.018295    -1.387761
 H     1.488635    -4.625530    -0.938308
 H     0.862583    -3.762566    -2.437358
 H    -0.342364    -1.697300    -1.610544
Rh     0.223229    -2.237128    -0.230735
 O    -1.503814     0.492301    -0.181239
 O    -3.022663    -1.565973     0.071850
 O    -1.833732    -0.723150     2.042523
 O     1.653342     0.574821     0.625913
 O     3.363859    -0.877269    -0.386864
 O     1.648251     0.198532    -1.932638
 P     1.743470    -0.607599    -0.526829
 P    -1.541174    -1.043203     0.462365
 C     0.916818    -2.961350     1.412878
 O     1.344373    -3.407106     2.376962
 C    -2.546171     1.375505    -0.094118
 C    -3.483970     1.418962    -1.123939
 H    -3.367796     0.725064    -1.959250
 C    -2.644766     2.237041     0.999200
 H    -1.894713     2.192036     1.789946
 C    -4.552714     2.319560    -1.074843
 C    -5.548731     2.375407    -2.196839
 H    -5.828038     1.366903    -2.536585
 H    -6.465030     2.903061    -1.896999
 H    -5.129688     2.905713    -3.067911
 C    -3.706894     3.135508     1.051427
 H    -3.798838     3.813430     1.903483
 C    -4.654415     3.174320     0.029508
 H    -5.485969     3.881461     0.086678
 C    -4.202074    -1.358569     0.832313
 H    -4.111480    -1.818362     1.826758
 H    -4.428767    -0.288877     0.951746
 H    -5.017485    -1.840689     0.276794
 C    -0.768001    -0.372545     2.905554
 H    -0.368019    -1.267884     3.406642
 H     0.050928     0.128228     2.365534
 H    -1.170473     0.308696     3.668649
 C     2.084080     1.867484     0.465817
 C     3.419320     2.192103     0.689383
 H     4.109816     1.392740     0.966174
 C     1.154197     2.840059     0.099698
 H     0.119963     2.542200    -0.077728
 C     3.858049     3.512509     0.538513
 C     5.292703     3.868767     0.801771
 H     5.976761     3.105306     0.402175
 H     5.557205     4.836335     0.352389
 H     5.486873     3.942270     1.884686
 C     1.588789     4.153342    -0.052120
 H     0.874773     4.926552    -0.345977
 C     2.926580     4.486888     0.160917
 H     3.254885     5.521764     0.033352
 C     3.926144    -2.038522    -0.960869
 H     3.236597    -2.894328    -0.872303
 H     4.160347    -1.882852    -2.027644
 H     4.856496    -2.261323    -0.420813
 C     2.648397     1.025374    -2.501274
 H     2.414304     2.084445    -2.319281
 H     3.641204     0.803595    -2.083034
 H     2.657412     0.835086    -3.584255
