  88
scf done:    -2154.158860
 C    -1.554008    -1.005557    -3.306906
 H    -1.985836    -2.007590    -3.387625
 H    -2.279953    -0.199093    -3.444144
 C    -0.198586    -0.802793    -3.676278
 H     0.394919    -1.652326    -4.026886
 H     0.104391     0.157286    -4.102611
 H    -0.633602     0.822154    -1.813800
Rh    -0.376965    -0.714704    -1.524388
 C    -2.953107     1.140694     0.031671
 O    -3.154026    -1.395548     0.410405
 O    -1.201162    -0.234615     1.618689
 C     2.026573    -0.782336     1.015686
 O     2.928466     0.247362    -1.216168
 O     1.160475     1.663051     0.010356
 P     1.461731     0.122412    -0.472495
 P    -1.905421    -0.351850     0.122355
 C     0.055500    -2.561285    -1.263502
 O     0.360971    -3.658322    -1.115178
 H    -3.631465     1.116332     0.901814
 H    -3.583485     1.004455    -0.861389
 C    -2.153329     2.434818    -0.025540
 H    -1.328845     2.385498     0.703085
 H    -1.654124     2.509575    -1.006090
 C    -2.975072     3.699404     0.226080
 H    -3.458858     3.594211     1.217018
 C    -2.059851     4.916900     0.284122
 H    -1.290532     4.803021     1.064131
 H    -2.623671     5.838177     0.498236
 H    -1.538812     5.059708    -0.677275
 C    -4.076477     3.889885    -0.810403
 H    -4.652227     4.808388    -0.617108
 H    -4.787200     3.049730    -0.816836
 H    -3.646798     3.971544    -1.823059
 C    -2.950931    -2.810252     0.441669
 H    -1.878726    -3.014230     0.618809
 C    -3.358089    -3.408220    -0.888956
 H    -2.774652    -2.952930    -1.699554
 H    -4.425477    -3.216814    -1.078727
 H    -3.187044    -4.495043    -0.898326
 C    -3.755975    -3.360268     1.602043
 H    -3.429394    -2.923207     2.556210
 H    -4.822983    -3.127352     1.464687
 H    -3.644509    -4.452934     1.665661
 C    -1.928890    -0.157536     2.846129
 H    -2.983891    -0.417015     2.647616
 C    -1.845985     1.246534     3.414404
 H    -2.312687     1.982552     2.745936
 H    -0.793973     1.534767     3.558958
 H    -2.356626     1.297650     4.387944
 C    -1.339090    -1.190732     3.786842
 H    -1.364712    -2.190825     3.331090
 H    -0.289774    -0.947028     4.013943
 H    -1.897669    -1.223781     4.734314
 H     1.961328    -1.840769     0.707893
 H     1.211253    -0.634040     1.741242
 C     3.410179    -0.508867     1.588431
 H     4.139355    -0.507860     0.763442
 H     3.453104     0.497517     2.037961
 C     3.850655    -1.523931     2.647018
 H     3.828851    -2.524140     2.174027
 C     5.284048    -1.243459     3.082687
 H     5.972658    -1.245834     2.223491
 H     5.641079    -1.994540     3.804389
 H     5.359805    -0.255178     3.566805
 C     2.910963    -1.554927     3.847270
 H     3.260691    -2.268675     4.609193
 H     1.889763    -1.849605     3.563660
 H     2.853840    -0.561305     4.324613
 C     3.028130     0.430859    -2.631547
 H     2.042429     0.751643    -3.011161
 C     3.389212    -0.897023    -3.264755
 H     2.617466    -1.644029    -3.031419
 H     4.355261    -1.255476    -2.876495
 H     3.462694    -0.804199    -4.358816
 C     4.054809     1.514031    -2.888003
 H     3.753429     2.459529    -2.414998
 H     5.033238     1.220593    -2.477117
 H     4.171097     1.689111    -3.968025
 C     2.097656     2.538520     0.633224
 H     3.109053     2.105111     0.548350
 C     1.724035     2.706436     2.094225
 H     1.701515     1.737066     2.611865
 H     0.723970     3.158602     2.178016
 H     2.444627     3.358728     2.610430
 C     2.064327     3.850973    -0.125198
 H     2.332932     3.693109    -1.179128
 H     1.051666     4.280572    -0.093287
 H     2.767912     4.575836     0.311282
