 104
scf done:    -2763.408584
 C    -0.039364    -3.884174     0.807089
 H     0.713849    -4.447598     0.247190
 H     0.093958    -3.914494     1.891608
 C    -1.330625    -3.703759     0.264141
 H    -1.568098    -4.115583    -0.721022
 H    -2.193478    -3.588968     0.923714
 H    -0.837601    -1.574521     1.564578
Rh    -0.232939    -1.832948     0.116554
 C     1.476730    -0.075853     2.678843
 O     3.099126    -1.204528     1.092784
 O     1.714029     0.722653     0.036977
 C    -1.305663     0.741232    -2.037531
 O    -3.236047    -0.518678    -0.779466
 O    -1.777292     1.024859     0.662924
 P    -1.631325    -0.164859    -0.490712
 P     1.523567    -0.670615     0.954597
 C     0.373328    -2.166235    -1.673728
 O     0.680623    -2.343524    -2.763284
 H     2.453382     0.388196     2.892098
 H     1.424432    -1.001612     3.275350
 C     0.314008     0.852107     2.980490
 H     0.353320     1.716668     2.299600
 H    -0.632368     0.341728     2.740139
 C     0.252397     1.373781     4.416464
 H     1.208236     1.889069     4.633058
 C    -0.871137     2.398424     4.533659
 H    -0.741768     3.222566     3.814858
 H    -0.921100     2.830683     5.545038
 H    -1.846628     1.929858     4.320736
 C     0.081519     0.252853     5.434930
 H     0.011555     0.652892     6.458297
 H     0.921588    -0.457943     5.417421
 H    -0.841834    -0.316345     5.234179
 C     3.873882    -1.796272     0.129479
 C     3.402548    -2.846451    -0.654614
 H     2.395176    -3.220796    -0.478462
 C     5.192708    -1.325778     0.006665
 C     5.715084    -0.269182     0.929658
 H     5.162039     0.674792     0.822603
 H     5.607905    -0.581149     1.980157
 H     6.776894    -0.069395     0.732419
 C     4.220398    -3.398255    -1.638759
 H     3.839694    -4.210366    -2.262203
 C     5.991140    -1.902864    -0.984346
 H     7.017633    -1.544290    -1.100277
 C     5.514249    -2.916375    -1.815340
 H     6.161372    -3.340505    -2.586229
 C     2.786671     1.567785    -0.050556
 C     3.096386     2.453015     0.981550
 H     2.494158     2.450061     1.890779
 C     3.503501     1.569807    -1.259541
 C     3.121709     0.637245    -2.366928
 H     3.308396    -0.412645    -2.091192
 H     2.048818     0.715599    -2.599058
 H     3.695169     0.854143    -3.277724
 C     4.162166     3.339646     0.835594
 H     4.407731     4.028857     1.646608
 C     4.564696     2.471252    -1.377818
 H     5.138151     2.485107    -2.308490
 C     4.902075     3.344548    -0.344157
 H     5.739148     4.035442    -0.465663
 H    -1.043679    -0.049716    -2.760776
 H    -0.369055     1.287461    -1.843718
 C    -2.396013     1.637043    -2.607454
 H    -3.292592     1.024861    -2.790721
 H    -2.690898     2.400021    -1.869177
 C    -1.989696     2.347024    -3.901959
 H    -1.683997     1.571240    -4.629900
 C    -3.187300     3.090935    -4.481790
 H    -4.034625     2.411667    -4.663987
 H    -2.934630     3.580074    -5.435241
 H    -3.531227     3.873928    -3.785509
 C    -0.812340     3.295119    -3.697625
 H    -0.556076     3.813369    -4.634532
 H     0.094118     2.771978    -3.356445
 H    -1.056274     4.060386    -2.942231
 C    -3.899214    -1.499643    -0.088435
 C    -4.009168    -1.452156     1.299257
 H    -3.540579    -0.629860     1.841330
 C    -4.460738    -2.543692    -0.836501
 C    -4.271110    -2.582111    -2.321063
 H    -4.636257    -1.658940    -2.796712
 H    -3.201260    -2.665417    -2.573913
 H    -4.797387    -3.437176    -2.766345
 C    -4.694580    -2.463403     1.969142
 H    -4.775234    -2.432943     3.058085
 C    -5.153129    -3.537894    -0.141084
 H    -5.596799    -4.362630    -0.705464
 C    -5.270367    -3.507253     1.248223
 H    -5.809678    -4.302671     1.767191
 C    -1.835676     2.384406     0.504354
 C    -0.674638     3.092452     0.198160
 H     0.255057     2.541067     0.056096
 C    -3.058539     3.038951     0.720808
 C    -4.286595     2.255763     1.065895
 H    -4.478525     1.468323     0.321892
 H    -4.171562     1.750550     2.038274
 H    -5.167761     2.908616     1.123408
 C    -0.720172     4.478976     0.073576
 H     0.191800     5.027477    -0.172846
 C    -3.074072     4.431065     0.593013
 H    -4.018029     4.959752     0.751375
 C    -1.924663     5.151163     0.267462
 H    -1.971840     6.238159     0.171702
