 106
scf done:    -2465.503303
 C     1.460325    -4.003781    -0.902116
 H     2.070912    -4.110428    -1.804322
 H     1.977559    -4.283795     0.019979
 C     0.049376    -4.162881    -0.991591
 H    -0.406997    -4.387859    -1.960683
 H    -0.503082    -4.563353    -0.136838
 H     0.489899    -2.418227     0.825350
Rh     0.513934    -2.078392    -0.733279
 O     1.286567     0.188366     1.448885
 C     3.602896    -0.991351     0.666846
 C     2.283973     0.924219    -1.053355
 O    -1.207313     0.703290    -0.733778
 C    -2.916749    -1.403729    -1.280215
 C    -1.989976    -0.829392     1.406328
 P    -1.412002    -0.934865    -0.327515
 P     1.945874    -0.502779     0.054672
 C     0.601355    -1.674464    -2.597615
 O     0.654627    -1.399905    -3.711128
 C     1.521389     1.454158     1.895718
 C     0.795954     2.516970     1.353613
 H     0.066721     2.295898     0.574104
 C     2.449190     1.679622     2.913283
 H     2.987988     0.833658     3.343685
 C     1.015942     3.827737     1.781927
 C     0.270223     4.967030     1.149131
 H    -0.656504     4.621835     0.668007
 H     0.014396     5.742405     1.886429
 H     0.883955     5.450108     0.369966
 C     2.665667     2.985039     3.351224
 H     3.392548     3.173127     4.145324
 C     1.966413     4.050622     2.787513
 H     2.151550     5.068954     3.139344
 H     4.108925    -0.118504     1.112642
 H     3.412073    -1.714688     1.476634
 C     4.447570    -1.628672    -0.428263
 H     3.857510    -2.426888    -0.910537
 H     4.657770    -0.886657    -1.219151
 C     5.763157    -2.199034     0.082258
 H     5.552666    -2.942892     0.872060
 H     6.347852    -1.399011     0.572330
 C     6.604511    -2.845855    -1.009053
 H     6.011324    -3.639619    -1.496407
 H     6.808348    -2.100161    -1.798031
 C     7.914990    -3.423599    -0.499818
 H     8.499452    -3.883694    -1.310943
 H     7.739518    -4.198242     0.264017
 H     8.542927    -2.644490    -0.038033
 H     2.490664     0.462682    -2.033740
 H     1.298970     1.405487    -1.173517
 C     3.366429     1.935970    -0.688671
 H     3.366303     2.135636     0.393242
 H     4.361265     1.515800    -0.916346
 C     3.187530     3.261950    -1.415002
 H     2.163467     3.630654    -1.223200
 H     3.250292     3.104946    -2.507308
 C     4.186174     4.326518    -0.985339
 H     4.112069     4.458113     0.108918
 H     5.212152     3.964441    -1.175778
 C     3.976604     5.663668    -1.677126
 H     4.708706     6.414938    -1.344000
 H     2.971055     6.065154    -1.469726
 H     4.070698     5.569070    -2.770969
 C    -2.200545     1.627846    -0.864711
 C    -2.675371     2.322464     0.249111
 H    -2.250554     2.102009     1.230694
 C    -2.700963     1.913766    -2.138064
 H    -2.296005     1.379512    -2.999411
 C    -3.680458     3.288182     0.116278
 C    -4.168327     4.034293     1.324238
 H    -4.462778     3.343757     2.129429
 H    -3.376431     4.683970     1.731412
 H    -5.033079     4.668459     1.085255
 C    -3.704672     2.866677    -2.274213
 H    -4.108292     3.088193    -3.265187
 C    -4.197622     3.543687    -1.157984
 H    -4.986953     4.289819    -1.278740
 H    -2.705662    -1.083476    -2.315556
 H    -2.885348    -2.506052    -1.310957
 C    -4.283962    -0.910127    -0.820539
 H    -4.544982    -1.387064     0.139568
 H    -4.258673     0.172647    -0.623908
 C    -5.381213    -1.192066    -1.837212
 H    -5.432227    -2.277499    -2.039991
 H    -5.109181    -0.719159    -2.798543
 C    -6.748860    -0.686741    -1.400101
 H    -7.016882    -1.154358    -0.435925
 H    -6.679592     0.396892    -1.197678
 C    -7.845312    -0.949902    -2.419346
 H    -8.820043    -0.571291    -2.076026
 H    -7.958138    -2.028240    -2.616317
 H    -7.619938    -0.463242    -3.382036
 H    -1.154810    -0.353999     1.946421
 H    -2.865320    -0.163242     1.468120
 C    -2.300605    -2.194596     2.005313
 H    -3.130085    -2.672512     1.453979
 H    -1.424767    -2.850322     1.865510
 C    -2.657288    -2.123100     3.483394
 H    -3.529015    -1.457383     3.622438
 H    -1.825159    -1.645658     4.031696
 C    -2.955880    -3.482760     4.099044
 H    -3.784411    -3.957318     3.543587
 H    -2.083060    -4.142974     3.951934
 C    -3.303857    -3.413772     5.577123
 H    -3.513427    -4.410908     5.993143
 H    -4.194279    -2.787658     5.749623
 H    -2.478081    -2.976573     6.161288
