 106
scf done:    -2465.509943
 C     0.979249    -4.010486     1.099033
 H     1.557230    -4.558532     0.348135
 H     1.511597    -3.851337     2.040962
 C    -0.437774    -4.122493     1.101346
 H    -0.925716    -4.752589     0.350855
 H    -0.985391    -4.048490     2.044701
 H     0.116222    -1.765547     1.892264
Rh     0.130347    -2.179691     0.353908
 O     1.428492     0.644715     1.383682
 C     3.464467    -1.043110     0.849380
 C     2.045916     0.228188    -1.313206
 O    -1.321374     0.546659    -0.761758
 C    -3.148886    -1.473840    -0.773704
 C    -2.489799    -0.121935     1.643292
 P    -1.696000    -0.837327     0.152911
 P     1.771872    -0.597447     0.304037
 C     0.157947    -2.699433    -1.483973
 O     0.162899    -2.985982    -2.595928
 C     1.718127     1.966685     1.246022
 C     0.946325     2.762235     0.396100
 H     0.134647     2.289569    -0.157236
 C     2.750041     2.531564     1.996747
 H     3.325238     1.898115     2.674368
 C     1.218598     4.123805     0.246149
 C     0.417170     4.954523    -0.714132
 H     0.946908     5.057127    -1.676255
 H    -0.558482     4.493824    -0.926457
 H     0.248964     5.970554    -0.327181
 C     3.018105     3.892271     1.859054
 H     3.825258     4.343707     2.441352
 C     2.269146     4.681018     0.987709
 H     2.494818     5.746006     0.888297
 H     3.352480    -1.399563     1.886849
 H     4.083259    -0.131650     0.874724
 C     4.071707    -2.130928    -0.025737
 H     3.326264    -2.935214    -0.146206
 H     4.262191    -1.734916    -1.040263
 C     5.369974    -2.734916     0.514231
 H     5.152437    -3.125946     1.526132
 C     5.807312    -3.907050    -0.356189
 H     5.020339    -4.674403    -0.421018
 H     6.715422    -4.386712     0.040717
 H     6.030318    -3.570994    -1.382796
 C     6.482465    -1.699954     0.638141
 H     7.410097    -2.156606     1.016654
 H     6.213718    -0.882557     1.324119
 H     6.709390    -1.251503    -0.344170
 H     1.086115     0.724051    -1.533727
 H     2.098672    -0.612671    -2.024721
 C     3.228328     1.177335    -1.483753
 H     3.382866     1.768313    -0.569269
 H     4.156947     0.596623    -1.628814
 C     3.058441     2.154219    -2.649756
 H     2.100672     2.682886    -2.483614
 C     4.169458     3.196456    -2.637524
 H     4.184982     3.746845    -1.683591
 H     4.043030     3.928675    -3.450390
 H     5.156825     2.722487    -2.768766
 C     2.975893     1.440918    -3.994076
 H     2.837199     2.158172    -4.817914
 H     2.137547     0.728845    -4.032273
 H     3.903188     0.878142    -4.195757
 C    -2.222942     1.453047    -1.241343
 C    -2.657760     2.510022    -0.441195
 H    -2.297980     2.578859     0.586396
 C    -2.646526     1.358439    -2.569936
 H    -2.281906     0.534633    -3.186201
 C    -3.527549     3.483998    -0.946715
 C    -3.958544     4.627099    -0.074179
 H    -4.309701     4.271616     0.906562
 H    -3.117676     5.314533     0.115493
 H    -4.767002     5.208172    -0.538885
 C    -3.514266     2.320526    -3.075971
 H    -3.850531     2.251509    -4.113363
 C    -3.954916     3.373302    -2.273295
 H    -4.636256     4.122604    -2.684100
 H    -2.769365    -1.735107    -1.776589
 H    -3.882820    -0.662187    -0.904610
 C    -3.767798    -2.700623    -0.115491
 H    -2.957394    -3.383415     0.189961
 H    -4.287626    -2.404909     0.813829
 C    -4.751205    -3.463619    -1.006103
 H    -4.198000    -3.767557    -1.915045
 C    -5.225133    -4.729653    -0.302378
 H    -4.377013    -5.368601    -0.011123
 H    -5.890602    -5.323717    -0.947710
 H    -5.785607    -4.481944     0.614699
 C    -5.931652    -2.602365    -1.440789
 H    -6.630373    -3.175266    -2.069967
 H    -5.612592    -1.722164    -2.019252
 H    -6.494723    -2.240302    -0.563697
 H    -2.901784    -0.989909     2.187085
 H    -3.347978     0.485592     1.310490
 C    -1.539744     0.656829     2.538409
 H    -0.709770    -0.008172     2.822747
 H    -1.062018     1.469802     1.966070
 C    -2.174720     1.249683     3.797098
 H    -2.692334     0.430307     4.331395
 C    -1.086088     1.798191     4.712984
 H    -0.367679     1.013240     4.994622
 H    -1.509289     2.221254     5.637450
 H    -0.518703     2.596595     4.205966
 C    -3.205060     2.329234     3.480327
 H    -3.673236     2.715441     4.399043
 H    -4.012904     1.960276     2.829536
 H    -2.726083     3.183596     2.971960
