  64
scf done:    -1839.859926
 C    -3.301968    -1.579309    -1.082411
 H    -3.928724    -2.028277    -0.307030
 H    -3.752099    -0.715534    -1.577811
 C    -2.347945    -2.366748    -1.768383
 H    -2.255583    -3.429742    -1.524373
 H    -2.063490    -2.111716    -2.792457
 H    -1.337286    -0.045752    -1.545609
Rh    -1.336438    -1.075522    -0.338488
 C    -1.554964     2.426128    -0.058980
 O    -3.300239     0.895338     1.389694
 O    -0.870421     1.252758     2.143320
 C     1.955394    -0.395406     0.600011
 O     1.734603    -2.479619    -0.945327
 O     1.276046    -0.212995    -2.088714
 P     0.897397    -1.070094    -0.730579
 P    -1.761599     0.829400     0.802496
 C    -1.374091    -2.383401     1.062889
 O    -1.406892    -3.189407     1.878388
 H    -1.893857     3.240741     0.601438
 H    -2.242753     2.372624    -0.918251
 C    -0.118449     2.658315    -0.505413
 H     0.511543     2.738950     0.395959
 H     0.236924     1.777017    -1.065955
 C     0.103574     3.894822    -1.378950
 H    -0.287187     4.775615    -0.834658
 C     1.598290     4.101915    -1.598824
 H     2.135308     4.208835    -0.643083
 H     1.799188     5.000500    -2.202492
 H     2.032604     3.238351    -2.130324
 C    -0.629333     3.793136    -2.711994
 H    -0.436103     4.676331    -3.340459
 H    -1.719373     3.714882    -2.583443
 H    -0.295825     2.901482    -3.268762
 C    -3.789381     2.002137     2.114153
 H    -3.020530     2.422918     2.783118
 H    -4.150898     2.796195     1.439293
 H    -4.635748     1.652899     2.722546
 C    -0.660007     0.308403     3.163396
 H    -1.591172     0.089135     3.713266
 H    -0.265286    -0.639775     2.762027
 H     0.075285     0.730405     3.863066
 H     1.602463    -0.944283     1.490869
 H     1.600350     0.638097     0.734260
 C     3.471925    -0.480514     0.516462
 H     3.757470    -1.501104     0.215618
 H     3.851323     0.196297    -0.266925
 C     4.171002    -0.129649     1.833496
 H     3.798949    -0.834847     2.601127
 C     5.676219    -0.330602     1.704263
 H     5.919336    -1.357757     1.390755
 H     6.191993    -0.137234     2.657621
 H     6.099932     0.356316     0.952452
 C     3.846402     1.285435     2.301264
 H     4.379421     1.527103     3.233805
 H     2.771203     1.425895     2.490089
 H     4.151152     2.026962     1.542897
 C     1.180707    -3.510863    -1.733116
 H     0.108815    -3.641223    -1.514079
 H     1.294873    -3.296966    -2.809425
 H     1.721768    -4.437125    -1.495208
 C     2.565415    -0.148794    -2.653134
 H     3.109413     0.740558    -2.294338
 H     3.157813    -1.048823    -2.425535
 H     2.450019    -0.067669    -3.744057
