  88
scf done:    -4143.359702
 C     1.176420    -1.747681    -3.323937
 H     1.733469    -1.169684    -4.068733
 H     1.726485    -2.599606    -2.914858
 C    -0.238948    -1.798396    -3.413611
 H    -0.738949    -1.259696    -4.224837
 H    -0.778667    -2.686617    -3.073950
 H     0.307617    -1.923624    -0.972358
Rh     0.303156    -0.543174    -1.757663
 C     2.106778    -1.047008     1.271480
 C     3.624925     0.350470    -0.704659
 C     1.517147     1.678359     0.650723
 C    -1.970858     1.589379    -0.107939
 C    -3.205993    -0.764446    -1.165575
 C    -1.526582    -1.006768     1.137954
 P    -1.604553    -0.175500    -0.494114
 P     1.889051     0.075456    -0.172612
 C     0.286842     1.064047    -2.786145
 O     0.259347     2.019398    -3.423227
 H     2.852804    -0.599612     1.950274
 H     1.140204    -1.056846     1.799643
 C     2.488338    -2.474189     0.917590
 H     1.729740    -2.877615     0.225919
 H     3.445554    -2.491320     0.367679
 C     2.577867    -3.353769     2.157827
 H     1.671872    -3.202141     2.770906
 H     3.421117    -3.020669     2.789926
 C     2.722430    -4.837849     1.856196
 H     1.881406    -5.154104     1.213402
 H     3.634479    -5.006463     1.256829
 C     2.758050    -5.696136     3.110617
 H     2.837201    -6.767466     2.871628
 H     1.846769    -5.551991     3.713861
 H     3.616354    -5.433581     3.749873
 C     4.045217    -0.127087    -1.947904
 H     3.314867    -0.621330    -2.592073
 C     4.549734     1.002136     0.122158
 H     4.234495     1.398769     1.091391
 C     5.365886     0.029531    -2.363323
 H     5.697035    -0.342619    -3.334087
 C     5.869612     1.169278    -0.280739
 H     6.592561     1.680590     0.356951
 C     6.270106     0.677257    -1.524727
Cl     7.912077     0.883694    -2.031786
 C     1.160381     1.783260     1.999616
 H     1.214731     0.914652     2.656131
 C     1.453165     2.833034    -0.144465
 H     1.739421     2.784259    -1.197823
 C     0.695981     2.987049     2.530269
 H     0.399543     3.058017     3.578296
 C     1.001594     4.040949     0.371610
 H     0.936694     4.929516    -0.258180
 C     0.599364     4.104979     1.707357
Cl    -0.039588     5.583829     2.342207
 H    -1.108962     1.942725     0.480678
 H    -1.881142     2.106215    -1.077704
 C    -3.282838     1.957252     0.567494
 H    -4.125081     1.733387    -0.108093
 H    -3.448643     1.332729     1.462016
 C    -3.306281     3.427692     0.965397
 H    -3.168665     4.050041     0.062484
 H    -2.430619     3.646080     1.603158
 C    -4.571842     3.858882     1.691052
 H    -5.449613     3.646618     1.055393
 H    -4.700019     3.235276     2.593895
 C    -4.558692     5.328432     2.080696
 H    -5.468368     5.613960     2.630198
 H    -4.489883     5.975164     1.191252
 H    -3.691562     5.561922     2.719366
 C    -3.417913    -0.663505    -2.545046
 H    -2.605537    -0.306356    -3.182465
 C    -4.239470    -1.251993    -0.356762
 H    -4.094198    -1.341511     0.722433
 C    -4.636421    -1.025894    -3.110376
 H    -4.802414    -0.946548    -4.185873
 C    -5.458790    -1.631474    -0.910572
 H    -6.264039    -2.016585    -0.282881
 C    -5.651039    -1.512162    -2.286556
Cl    -7.165667    -1.981063    -2.980801
 C    -1.427365    -0.322322     2.352773
 H    -1.513851     0.764246     2.384279
 C    -1.409065    -2.405686     1.148311
 H    -1.471429    -2.957268     0.206898
 C    -1.178922    -1.006007     3.544497
 H    -1.081582    -0.466455     4.488097
 C    -1.176214    -3.100522     2.326683
 H    -1.072052    -4.186715     2.325495
 C    -1.041934    -2.390649     3.521930
Cl    -0.671376    -3.245877     4.980837
