 106
scf done:    -2465.437067
 C     0.477633     3.285049     0.881841
 H    -0.263786     3.996550     0.503943
 H     0.424440     3.120185     1.961613
 C     1.718474     3.145872     0.206154
 H     1.915027     3.747043    -0.687310
 H     2.615785     2.883610     0.772454
 H     1.183961     0.878101     1.152901
Rh     0.480059     1.415302    -0.167637
 C    -1.097269    -0.960465     1.941897
 C    -2.613690     1.451335     1.531235
 C    -2.431544    -0.509779    -0.572059
 C     0.742875    -1.095955    -2.586957
 C     3.299804    -0.060880    -1.902127
 C     2.005896    -1.753416     0.003573
 P     1.626473    -0.354001    -1.138260
 P    -1.393635     0.350159     0.688082
 C    -0.322122     2.092683    -1.757172
 O    -0.811947     2.495137    -2.716668
 C    -1.332748    -2.314001     1.687811
 H    -1.774787    -2.608232     0.736224
 C    -0.495539    -0.615767     3.173407
 O    -0.283488     0.695997     3.387677
 C     0.559674     1.100356     4.429830
 H     0.119511     0.893633     5.420999
 H     0.694372     2.183616     4.319363
 H     1.545354     0.608711     4.362336
 C    -0.996603    -3.306720     2.609200
 H    -1.197526    -4.355670     2.380848
 C    -0.149179    -1.606090     4.097814
 H     0.320634    -1.336059     5.043819
 C    -0.405634    -2.947408     3.814939
 H    -0.132883    -3.711076     4.547157
 H    -3.420013     0.837553     1.966545
 H    -2.065725     1.909326     2.367150
 C    -3.169647     2.523896     0.607105
 H    -2.328588     3.042660     0.118118
 H    -3.754106     2.061860    -0.208224
 C    -4.041112     3.541341     1.329759
 H    -3.452610     4.009276     2.139862
 H    -4.879619     3.022881     1.830238
 C    -4.590612     4.625732     0.413543
 H    -3.747633     5.134293    -0.086726
 H    -5.174136     4.153081    -0.396509
 C    -5.452017     5.649278     1.135254
 H    -5.833284     6.418915     0.447001
 H    -4.882335     6.163533     1.926113
 H    -6.321731     5.172475     1.615835
 H    -2.491380     0.193953    -1.418252
 H    -1.810094    -1.337603    -0.947206
 C    -3.820535    -0.993764    -0.178790
 H    -3.784899    -1.537749     0.780480
 H    -4.478982    -0.126442    -0.002850
 C    -4.444791    -1.888420    -1.241443
 H    -3.795999    -2.770813    -1.398153
 H    -4.452012    -1.356399    -2.209974
 C    -5.853659    -2.353902    -0.903540
 H    -5.838511    -2.873664     0.070991
 H    -6.499779    -1.470121    -0.758379
 C    -6.459464    -3.262821    -1.960670
 H    -7.477509    -3.581484    -1.690095
 H    -5.853017    -4.172552    -2.100408
 H    -6.517908    -2.755599    -2.937156
 C     0.725098    -0.330640    -3.759697
 H     1.260870     0.621822    -3.777391
 C    -0.009910    -2.288860    -2.583884
 O    -0.052734    -2.995049    -1.429423
 C    -0.669080    -4.249874    -1.402647
 H    -1.756551    -4.181227    -1.585084
 H    -0.503469    -4.653986    -0.395464
 H    -0.227770    -4.939034    -2.143380
 C     0.031445    -0.724399    -4.900546
 H     0.045032    -0.094741    -5.792129
 C    -0.706653    -2.694955    -3.727870
 H    -1.282192    -3.620597    -3.718789
 C    -0.682947    -1.916894    -4.882358
 H    -1.236321    -2.246987    -5.764571
 H     3.836141    -1.026454    -1.899597
 H     3.147442     0.200441    -2.960080
 C     4.115350     1.029291    -1.225791
 H     3.558592     1.976249    -1.298655
 H     4.201667     0.829770    -0.144933
 C     5.504895     1.190723    -1.824411
 H     5.416861     1.385805    -2.909313
 H     6.059684     0.237923    -1.738734
 C     6.313678     2.305523    -1.175496
 H     5.752064     3.252588    -1.259785
 H     6.396144     2.106339    -0.092207
 C     7.701227     2.475600    -1.772425
 H     8.259429     3.287757    -1.282207
 H     7.647197     2.711485    -2.847610
 H     8.296486     1.553736    -1.669593
 H     1.046366    -2.057146     0.441341
 H     2.374626    -2.606364    -0.588314
 C     2.975365    -1.396776     1.120161
 H     3.989167    -1.225632     0.718954
 H     2.654966    -0.443061     1.574865
 C     3.026777    -2.471590     2.196801
 H     3.408752    -3.415706     1.766630
 H     1.997391    -2.686239     2.530817
 C     3.867867    -2.084762     3.404236
 H     4.903135    -1.872949     3.082639
 H     3.483979    -1.132528     3.813234
 C     3.872369    -3.142392     4.496010
 H     4.479583    -2.836941     5.361890
 H     4.278620    -4.097418     4.125432
 H     2.849953    -3.341196     4.856815
