 100
scf done:    -2462.579002
 C    -1.048195     2.610241    -1.650806
 H    -0.328829     2.873104    -2.430871
 H    -2.060879     2.395856    -2.002010
 C    -0.805281     2.909406    -0.327744
 H     0.113304     3.414150    -0.020575
 H    -1.624030     2.941170     0.394071
 H    -0.319726     0.908880     0.917985
Rh    -0.253208     0.681159    -0.667259
 C    -3.230498     0.519284     1.176610
 C    -3.419575    -0.911135    -1.288348
 C    -1.760363    -2.043343     0.764445
 C     3.000451    -0.455592    -1.270715
 C     3.001455     2.112431    -0.110400
 C     2.147315    -0.137100     1.594994
 P     1.982997     0.555755    -0.097758
 P    -2.163527    -0.424085    -0.014871
 C     0.042861    -0.267381    -2.264808
 O     0.275885    -0.936941    -3.175321
 H    -3.818954    -0.164967     1.805398
 H    -2.538594     1.058916     1.837641
 C    -4.141135     1.512435     0.465097
 H    -3.567493     2.064220    -0.299105
 H    -4.922734     0.971961    -0.093654
 C    -4.789017     2.505020     1.419627
 H    -4.000968     3.058685     1.962518
 H    -5.353610     1.954651     2.194699
 C    -5.713118     3.494947     0.724626
 H    -5.141321     4.035343    -0.050427
 H    -6.496435     2.937340     0.181332
 C    -6.357149     4.491086     1.674998
 H    -7.017111     5.192945     1.142999
 H    -5.596282     5.086840     2.204628
 H    -6.963417     3.979436     2.439967
 C    -3.189074    -0.459299    -2.592173
 H    -2.292347     0.132158    -2.784183
 C    -4.594209    -1.653843    -1.015294
 C    -4.993854    -2.120081     0.356148
 H    -5.523171    -1.318456     0.897983
 H    -4.135701    -2.424948     0.967941
 H    -5.684218    -2.972311     0.287331
 C    -4.069665    -0.738923    -3.634304
 H    -3.856585    -0.374676    -4.641728
 C    -5.459580    -1.935023    -2.079436
 H    -6.361377    -2.519941    -1.877403
 C    -5.210423    -1.489625    -3.375166
 H    -5.911457    -1.730175    -4.178217
 C    -1.746781    -3.163635    -0.082833
 H    -2.022371    -3.042255    -1.133249
 C    -1.360526    -2.192183     2.110301
 C    -1.242786    -1.038825     3.060743
 H    -2.224809    -0.668740     3.390354
 H    -0.707168    -0.199587     2.587850
 H    -0.676951    -1.332319     3.954120
 C    -1.404094    -4.425211     0.387804
 H    -1.411047    -5.279701    -0.292878
 C    -1.031762    -3.477073     2.564530
 H    -0.732458    -3.594549     3.609723
 C    -1.059747    -4.588061     1.728619
 H    -0.799405    -5.574790     2.119170
 H     2.433428    -1.371511    -1.484030
 H     2.956647     0.139104    -2.199062
 C     4.443346    -0.776908    -0.924712
 H     5.021325     0.157356    -0.839945
 H     4.497432    -1.262964     0.064920
 C     5.100504    -1.679774    -1.960483
 H     5.033759    -1.203498    -2.955439
 H     4.526467    -2.621005    -2.043172
 C     6.555330    -2.000182    -1.647307
 H     7.122724    -1.056082    -1.565654
 H     6.614483    -2.469550    -0.649128
 C     7.210814    -2.904632    -2.678266
 H     8.260305    -3.117973    -2.424555
 H     7.197348    -2.444113    -3.679256
 H     6.684241    -3.869593    -2.755104
 C     2.515494     3.051021    -1.035630
 H     1.603894     2.798539    -1.582144
 C     4.205721     2.395922     0.576424
 C     4.899986     1.483141     1.551411
 H     4.573112     0.442698     1.484882
 H     4.720545     1.806155     2.589056
 H     5.986890     1.516751     1.382571
 C     3.158062     4.259077    -1.277120
 H     2.748779     4.961259    -2.006933
 C     4.826450     3.631422     0.331253
 H     5.753684     3.858039     0.865776
 C     4.320360     4.558130    -0.571847
 H     4.840865     5.505466    -0.732225
 C     2.152998     0.778639     2.658665
 H     2.131694     1.849439     2.438469
 C     2.091268    -1.518436     1.874780
 C     1.895625    -2.555255     0.809547
 H     2.807750    -2.730826     0.219303
 H     1.094576    -2.244000     0.119215
 H     1.596941    -3.512474     1.255384
 C     2.192772     0.354474     3.980449
 H     2.205429     1.089137     4.789068
 C     2.155467    -1.924234     3.215610
 H     2.125938    -2.995375     3.433282
 C     2.221342    -1.011130     4.261864
 H     2.268399    -1.363629     5.295048
