 102
scf done:    -2688.675295
 C     2.098046     1.325372    -2.937551
 H     3.016080     1.883485    -2.730252
 H     2.258265     0.396351    -3.492614
 C     0.858651     1.997172    -3.042667
 H     0.823995     3.085094    -2.926986
 H     0.067732     1.596117    -3.681927
 H     0.389392    -0.291723    -1.922439
Rh     0.966277     0.965983    -1.133056
 C     2.200395    -2.308589    -1.042781
 C     4.179408    -0.250519    -0.705238
 C     2.492988    -0.974177     1.548873
 C    -1.458029    -0.747377     0.713542
 C    -1.390808     2.202273     1.101760
 C    -2.610249     0.956094    -1.272035
 P    -1.148938     0.880923    -0.142942
 P     2.423947    -0.626130    -0.266876
 C     1.541102     2.545434    -0.232679
 O     1.827674     3.536016     0.270575
 H     2.259740    -2.120065    -2.122966
 H     3.045718    -2.954106    -0.768581
 C     0.890407    -2.971590    -0.740204
 C     0.632776    -3.554639     0.508006
 H     1.393289    -3.528858     1.290472
 C    -0.112126    -3.012759    -1.714554
 H     0.082443    -2.557546    -2.689657
 C    -0.600207    -4.147144     0.762378
 H    -0.797921    -4.587430     1.742428
 C    -1.359268    -3.602996    -1.474441
 C    -2.415204    -3.600959    -2.541528
 H    -2.639874    -2.575221    -2.875684
 H    -2.088108    -4.166597    -3.428586
 H    -3.350883    -4.050501    -2.180768
 C    -1.591122    -4.169486    -0.217845
 H    -2.562795    -4.619432     0.000303
 C     4.720797    -0.816945    -1.869625
 H     4.135035    -1.522942    -2.458172
 C     4.956567     0.680367     0.024016
 C     4.484384     1.351985     1.280557
 H     4.564197     0.682127     2.150960
 H     3.434455     1.661231     1.218703
 H     5.088125     2.246708     1.485772
 C     6.001059    -0.499867    -2.313123
 H     6.389067    -0.959946    -3.224820
 C     6.242282     0.982280    -0.441504
 H     6.841428     1.701801     0.123416
 C     6.771622     0.405250    -1.591354
 H     7.778312     0.668836    -1.923872
 C     1.635502    -0.189527     2.328366
 H     1.026115     0.560441     1.817814
 C     3.346073    -1.903675     2.186409
 C     4.335676    -2.768158     1.458743
 H     4.803405    -2.242631     0.615508
 H     3.857431    -3.679045     1.061421
 H     5.131890    -3.097041     2.140715
 C     1.573889    -0.317387     3.711786
 H     0.902081     0.321458     4.289928
 C     3.265105    -2.023198     3.580646
 H     3.921860    -2.740033     4.081562
 C     2.390278    -1.252102     4.341395
 H     2.362074    -1.372567     5.427081
 H    -1.131380    -1.448158    -0.066420
 H    -0.714552    -0.834166     1.517072
 C    -2.832006    -1.109750     1.181381
 C    -3.183970    -1.080634     2.537240
 H    -2.435421    -0.817624     3.288215
 C    -3.801971    -1.507459     0.255023
 H    -3.532462    -1.562898    -0.801549
 C    -4.478420    -1.399402     2.937762
 H    -4.741002    -1.371778     3.998190
 C    -5.109393    -1.820828     0.636436
 C    -6.119984    -2.203512    -0.405146
 H    -5.789818    -3.086017    -0.976225
 H    -7.097587    -2.434438     0.040776
 H    -6.256563    -1.386876    -1.132353
 C    -5.440407    -1.754238     1.993605
 H    -6.457803    -1.994641     2.314126
 C    -1.319193     1.900521     2.467031
 H    -1.233230     0.862723     2.786521
 C    -1.492792     3.552661     0.696203
 C    -1.571529     3.950676    -0.747600
 H    -2.587242     3.803310    -1.149506
 H    -0.899590     3.340507    -1.370375
 H    -1.307258     5.009376    -0.875623
 C    -1.362119     2.899807     3.434668
 H    -1.309496     2.635713     4.493640
 C    -1.535031     4.540851     1.685650
 H    -1.610446     5.586583     1.375135
 C    -1.474446     4.230011     3.041296
 H    -1.507165     5.027620     3.787121
 C    -2.366231     0.477404    -2.565990
 H    -1.342851     0.188186    -2.815190
 C    -3.926026     1.335179    -0.910830
 C    -4.333047     1.829625     0.447005
 H    -4.016465     2.869998     0.617121
 H    -3.897351     1.229602     1.254826
 H    -5.426143     1.788155     0.548202
 C    -3.381162     0.359699    -3.510729
 H    -3.158161    -0.024107    -4.509067
 C    -4.926135     1.231390    -1.889129
 H    -5.943874     1.527311    -1.620007
 C    -4.672764     0.749136    -3.169433
 H    -5.485928     0.676800    -3.895974
