 102
scf done:    -3061.294050
 C     0.953393    -3.689802    -2.488210
 H     1.324211    -3.544525    -3.506470
 H     1.686076    -4.105610    -1.792699
 C    -0.425071    -3.853525    -2.251990
 H    -1.134106    -3.836851    -3.084166
 H    -0.767082    -4.401006    -1.370262
 H     0.490549    -2.531525    -0.280045
Rh     0.160212    -1.837804    -1.667945
 O     3.369837    -1.573140    -1.154689
 O     2.532376     0.694709    -1.628629
 O     2.023037    -0.404456     0.632891
 O    -1.950009     0.556336    -0.739238
 O    -3.051282    -1.758882    -0.856469
 O    -1.556113    -1.047216     1.108044
 P    -1.598086    -1.031656    -0.549305
 P     1.974554    -0.728065    -0.986810
 C    -0.181667    -1.068178    -3.405816
 O    -0.380123    -0.625254    -4.440072
 C     4.534760    -1.230543    -0.507237
 C     5.357799    -0.235655    -1.025285
 H     5.054104     0.268558    -1.943773
 C     4.869609    -1.904169     0.666884
 H     4.194455    -2.670147     1.051102
 C     6.536622     0.122109    -0.360243
 C     7.414540     1.204528    -0.918450
 H     7.841770     0.906842    -1.889378
 H     6.844161     2.131156    -1.088571
 H     8.247998     1.437601    -0.241386
 C     6.044788    -1.557120     1.325586
 H     6.318953    -2.071841     2.249502
 C     6.868245    -0.549401     0.821445
 H     7.784546    -0.280222     1.353105
 C     1.927322     1.928504    -1.553188
 C     2.726837     3.010667    -1.191144
 H     3.783056     2.838937    -0.978388
 C     0.572804     2.115754    -1.814078
 H    -0.058908     1.271751    -2.082147
 C     2.154781     4.269719    -1.048966
 H     2.785824     5.107884    -0.740039
 C     0.014016     3.380854    -1.653160
 H    -1.059168     3.506085    -1.820742
 C     0.786393     4.478911    -1.262470
 C     0.169492     5.837250    -1.093570
 H     0.733926     6.449482    -0.374826
 H    -0.868655     5.762620    -0.737404
 H     0.148623     6.389654    -2.048170
 C     2.147714     0.818848     1.246004
 C     1.010130     1.606931     1.418720
 H     0.055319     1.249023     1.036385
 C     3.382788     1.253905     1.714103
 H     4.263573     0.623984     1.583081
 C     1.118930     2.852555     2.021364
 H     0.223689     3.473158     2.119389
 C     3.472934     2.504267     2.325729
 H     4.447209     2.849035     2.683320
 C     2.354885     3.329906     2.478284
 C     2.468749     4.701121     3.077337
 H     2.343924     5.476909     2.303263
 H     3.448633     4.857169     3.550182
 H     1.691863     4.876876     3.837247
 C    -2.780350     1.445478    -0.094424
 C    -2.660333     1.709789     1.267550
 H    -1.941541     1.146959     1.861298
 C    -3.698999     2.141476    -0.878080
 H    -3.767987     1.915310    -1.942657
 C    -3.479569     2.667462     1.874791
 C    -3.365128     2.917910     3.350886
 H    -3.873893     2.124965     3.923954
 H    -2.313906     2.925541     3.676209
 H    -3.820995     3.876763     3.635131
 C    -4.513992     3.093659    -0.275996
 H    -5.241698     3.638707    -0.882046
 C    -4.408883     3.356741     1.089338
 H    -5.053023     4.109586     1.550808
 C    -4.280700    -1.199817    -0.582526
 C    -5.107669    -0.879220    -1.654554
 H    -4.767969    -1.099937    -2.668223
 C    -4.694737    -0.951616     0.725558
 H    -4.044479    -1.218009     1.559150
 C    -6.333133    -0.263003    -1.416374
 H    -6.973541    -0.001797    -2.263323
 C    -5.916527    -0.325004     0.944153
 H    -6.224881    -0.108516     1.970570
 C    -6.750688     0.045767    -0.117569
 C    -8.032423     0.782891     0.136833
 H    -8.693870     0.761467    -0.740794
 H    -7.829414     1.840530     0.375791
 H    -8.582521     0.357707     0.989785
 C    -1.082026    -2.123979     1.819514
 C    -0.038483    -1.912369     2.716734
 H     0.393782    -0.914958     2.805053
 C    -1.632254    -3.394669     1.661944
 H    -2.442640    -3.549600     0.947008
 C     0.449300    -2.981379     3.460316
 H     1.274225    -2.809773     4.157390
 C    -1.125293    -4.454439     2.410827
 H    -1.554279    -5.451334     2.277559
 C    -0.080931    -4.270935     3.323078
 C     0.441883    -5.411671     4.147315
 H     1.531099    -5.342211     4.285602
 H     0.218994    -6.381706     3.680481
 H    -0.013465    -5.417503     5.151913
