 104
scf done:    -2763.400337
 C     0.815831    -3.729117    -0.950862
 H     1.450429    -3.947520    -1.815795
 H     1.272948    -3.964242     0.014157
 C    -0.592742    -3.772586    -1.090439
 H    -1.034970    -4.018185    -2.060214
 H    -1.220444    -4.028160    -0.233181
 H    -0.132870    -1.924218     0.582321
Rh     0.038107    -1.706063    -0.979779
 C     2.288800    -0.220059     1.349846
 O     3.060277    -0.169487    -1.238209
 O     1.169255     1.331606    -0.584854
 C    -2.186213     0.867386    -1.940779
 O    -3.303612    -1.076679    -0.556569
 O    -1.660316     0.446345     0.731521
 P    -1.783466    -0.406287    -0.698206
 P     1.639207    -0.257570    -0.356619
 C     0.246323    -1.499642    -2.880358
 O     0.371139    -1.369872    -4.010687
 H     2.998287     0.622701     1.414136
 H     2.877553    -1.141899     1.478609
 C     1.184721    -0.103340     2.393570
 H     0.422196     0.614010     2.051444
 H     0.650937    -1.066279     2.465800
 C     1.676687     0.312182     3.780342
 H     2.187490     1.288396     3.671146
 C     0.489297     0.506695     4.715927
 H    -0.226895     1.238034     4.309380
 H     0.810262     0.859544     5.708356
 H    -0.054176    -0.442214     4.859037
 C     2.681074    -0.677700     4.358599
 H     3.014325    -0.366742     5.360917
 H     3.577733    -0.773190     3.727533
 H     2.229828    -1.679962     4.453142
 C     4.211028    -0.817617    -0.885205
 C     4.279387    -2.211304    -0.872821
 H     3.391329    -2.789670    -1.134334
 C     5.331568    -0.059533    -0.548025
 H     5.252705     1.029747    -0.554830
 C     5.471923    -2.835921    -0.517502
 H     5.515397    -3.928626    -0.504237
 C     6.518328    -0.701391    -0.204663
 H     7.392487    -0.099561     0.059707
 C     6.613335    -2.098090    -0.181191
 C     7.904693    -2.782170     0.163753
 H     7.729683    -3.757266     0.641368
 H     8.514461    -2.172574     0.846458
 H     8.510401    -2.965623    -0.739722
 C     1.980836     2.409380    -0.335628
 C     2.885200     2.844721    -1.305805
 H     2.962573     2.289795    -2.241221
 C     1.871958     3.099300     0.871230
 H     1.163525     2.753170     1.625809
 C     3.674844     3.962784    -1.057840
 H     4.382099     4.294236    -1.823579
 C     2.668491     4.219289     1.102748
 H     2.575315     4.750894     2.053740
 C     3.583795     4.672229     0.147477
 C     4.423874     5.892960     0.388204
 H     4.017580     6.766457    -0.148501
 H     5.455816     5.748026     0.034665
 H     4.462926     6.151448     1.455884
 H    -1.937517     0.391350    -2.904556
 H    -1.408713     1.633498    -1.782528
 C    -3.591365     1.452648    -1.991214
 H    -4.305691     0.631098    -2.155548
 H    -3.861464     1.897455    -1.020972
 C    -3.774674     2.513472    -3.079980
 H    -3.476530     2.062880    -4.046011
 C    -5.244409     2.906521    -3.177389
 H    -5.882314     2.033602    -3.386066
 H    -5.411978     3.646902    -3.975004
 H    -5.589696     3.352087    -2.229410
 C    -2.902938     3.742222    -2.841757
 H    -3.062946     4.499222    -3.625076
 H    -1.829555     3.499218    -2.835914
 H    -3.144381     4.204184    -1.869928
 C    -3.525706    -2.240169     0.128400
 C    -4.305968    -3.219738    -0.485034
 H    -4.696135    -3.029534    -1.486539
 C    -3.005125    -2.460759     1.403438
 H    -2.388230    -1.695998     1.877460
 C    -4.556167    -4.417145     0.174915
 H    -5.162883    -5.181405    -0.319059
 C    -3.259253    -3.670898     2.046513
 H    -2.836337    -3.840580     3.040564
 C    -4.034830    -4.670217     1.451113
 C    -4.319921    -5.964580     2.156528
 H    -5.358052    -5.997452     2.526959
 H    -3.656007    -6.105919     3.021053
 H    -4.188998    -6.826202     1.484209
 C    -2.428468     1.528689     1.066615
 C    -3.692380     1.356394     1.631060
 H    -4.077417     0.347462     1.788065
 C    -1.922606     2.810252     0.855776
 H    -0.933252     2.922746     0.409594
 C    -4.453248     2.475349     1.956460
 H    -5.448965     2.334424     2.386146
 C    -2.696951     3.918335     1.189059
 H    -2.297422     4.920310     1.009061
 C    -3.976020     3.774690     1.739548
 C    -4.798250     4.972947     2.116617
 H    -5.872354     4.786915     1.970149
 H    -4.520625     5.855250     1.522144
 H    -4.654858     5.234502     3.178542
