  86
scf done:    -4441.179328
 C    -0.803816     1.083584    -3.249089
 H    -1.331980     0.376751    -3.895887
 H    -1.389510     1.966119    -2.978578
 C     0.608316     1.148177    -3.299744
 H     1.142416     0.491701    -3.994473
 H     1.126108     2.085932    -3.080466
 H    -0.040918     1.663081    -0.950059
Rh    -0.015505     0.170358    -1.466573
 C    -1.815074     1.317120     1.298893
 C    -3.496726     0.454501    -0.895736
 C    -2.338066    -1.426093     0.803648
 C     1.779435    -0.870953     1.461833
 C     3.396334    -0.692942    -0.852149
 C     2.505771     1.691868     0.431440
 P     1.879209     0.054151    -0.128686
 P    -1.877477     0.119600    -0.089865
 C     0.060431    -1.608096    -2.173041
 O     0.142948    -2.657458    -2.632584
 C    -1.523565     0.902923     2.600486
 H    -1.440795    -0.164372     2.814166
 C    -1.876845     2.703701     1.030126
 O    -2.108633     3.046869    -0.246964
 C    -2.012014     4.388655    -0.638855
 H    -2.789662     5.010919    -0.163279
 H    -2.159519     4.404567    -1.725545
 H    -1.017557     4.804880    -0.403719
 C    -1.310536     1.825636     3.625208
 H    -1.073973     1.474866     4.631560
 C    -1.685930     3.630558     2.060152
 H    -1.747366     4.699975     1.857288
 C    -1.401381     3.186059     3.351914
 H    -1.245415     3.919463     4.146655
 C    -3.745910    -0.176640    -2.118514
 H    -2.963237    -0.789755    -2.572027
 C    -4.500134     1.247349    -0.330380
 H    -4.329284     1.749103     0.624948
 C    -4.968795    -0.030357    -2.765436
 H    -5.162587    -0.525470    -3.718216
 C    -5.725443     1.411509    -0.970358
 H    -6.507548     2.033923    -0.532408
 C    -5.952881     0.769646    -2.186637
Cl    -7.474770     0.972101    -2.988896
 C    -3.521111    -1.512153     1.552408
 H    -4.191847    -0.652334     1.616758
 C    -1.509281    -2.544206     0.725994
 H    -0.589812    -2.484749     0.143012
 C    -3.861868    -2.682213     2.218411
 H    -4.781303    -2.749615     2.802070
 C    -1.840746    -3.727678     1.384246
 H    -1.194681    -4.604566     1.325525
 C    -3.013190    -3.788057     2.129998
Cl    -3.428330    -5.251386     2.957197
 C     1.730874    -0.263448     2.716750
 H     1.808775     0.822169     2.791063
 C     1.692172    -2.278414     1.394308
 O     1.717965    -2.802796     0.152578
 C     1.870156    -4.184122    -0.031208
 H     2.793507    -4.551327     0.447553
 H     1.929000    -4.344581    -1.114319
 H     1.008702    -4.748904     0.364216
 C     1.593242    -1.020154     3.881685
 H     1.556064    -0.520822     4.852043
 C     1.578520    -3.041463     2.556894
 H     1.521229    -4.128819     2.501140
 C     1.520569    -2.406057     3.797628
 H     1.420412    -3.009416     4.702824
 C     3.514360    -0.787661    -2.239419
 H     2.693873    -0.427165    -2.862831
 C     4.443065    -1.163897    -0.049241
 H     4.365459    -1.100205     1.039287
 C     4.651027    -1.340870    -2.825259
 H     4.741952    -1.417809    -3.909863
 C     5.581818    -1.722932    -0.618803
 H     6.397064    -2.094714     0.004183
 C     5.678070    -1.808425    -2.008892
Cl     7.091263    -2.509181    -2.723696
 C     3.828016     2.109319     0.250790
 H     4.552683     1.449895    -0.229490
 C     1.603809     2.576840     1.037010
 H     0.561422     2.283088     1.164743
 C     4.243217     3.373698     0.667318
 H     5.273371     3.699385     0.514420
 C     2.008308     3.830589     1.477495
 H     1.298093     4.503395     1.960746
 C     3.332364     4.225914     1.285223
Cl     3.842484     5.794656     1.813876
