  70
scf done:    -1994.122877
 C    -2.699873    -2.156033     1.997037
 H    -3.033771    -3.117441     1.594576
 H    -2.012094    -2.239614     2.842870
 C    -3.549996    -1.024708     1.892346
 H    -4.525789    -1.126940     1.407479
 H    -3.513950    -0.248612     2.662055
 H    -1.171559    -0.146246     1.717948
Rh    -1.924192    -0.820892     0.487677
 O     1.373320    -0.888532     0.829401
 C     0.465742    -3.408318     0.357615
 C     0.645000    -1.491342    -1.802754
 O    -0.817457     2.087612    -1.062561
 C    -3.288051     1.621741    -1.631033
 C    -2.564806     2.584810     0.987882
 P    -2.098242     1.319864    -0.264509
 P     0.148309    -1.639228    -0.029889
 C    -2.828791    -1.636538    -0.982444
 O    -3.353743    -2.113178    -1.886019
 C     2.707636    -0.960713     0.545545
 C     3.276770    -0.038777    -0.331863
 H     2.636263     0.711703    -0.798204
 C     3.503980    -1.914164     1.185007
 H     3.044520    -2.608919     1.890007
 C     4.648419    -0.066762    -0.604866
 C     5.240912     0.936360    -1.550427
 H     5.040232     1.962110    -1.203817
 H     6.327956     0.809171    -1.648048
 H     4.795311     0.847459    -2.553837
 C     4.869133    -1.946579     0.915013
 H     5.499860    -2.689805     1.408853
 C     5.437431    -1.035452     0.025199
 H     6.510967    -1.070082    -0.177116
 H     0.369321    -3.483142     1.452865
 C    -0.517211    -4.344517    -0.328536
 H    -0.448809    -4.285849    -1.425993
 H    -1.551319    -4.098385    -0.046670
 H     1.508433    -3.656444     0.100841
 H    -0.326927    -5.389709    -0.042211
 H     0.833021    -0.414788    -1.952213
 C     1.777116    -2.347240    -2.353215
 H     1.541386    -3.420021    -2.292987
 H     2.725060    -2.179978    -1.824450
 H    -0.291403    -1.691811    -2.349788
 H     1.945081    -2.111802    -3.415784
 C     0.375049     2.443693    -0.522522
 C     0.770353     2.109902     0.773479
 H     0.133941     1.469903     1.386174
 C     1.227081     3.196001    -1.341631
 H     0.898107     3.444724    -2.352134
 C     2.009787     2.527199     1.272488
 C     2.446356     2.086087     2.637477
 H     1.609915     2.092488     3.351432
 H     2.829126     1.052634     2.595860
 H     3.248547     2.724870     3.033100
 C     2.451083     3.625323    -0.840954
 H     3.109196     4.225527    -1.474516
 C     2.842401     3.301351     0.458820
 H     3.807905     3.641294     0.841652
 H    -2.969177     0.953828    -2.447087
 C    -4.733578     1.353524    -1.244709
 H    -5.097746     2.078099    -0.500280
 H    -4.855886     0.347622    -0.815741
 H    -3.142334     2.652537    -1.989700
 H    -5.390493     1.426087    -2.124095
 H    -1.866157     2.458391     1.828651
 C    -2.610079     4.027870     0.516913
 H    -3.353797     4.178935    -0.280121
 H    -1.633140     4.352489     0.129437
 H    -3.541162     2.238941     1.367945
 H    -2.879120     4.697837     1.347800
