 102
scf done:    -3061.230525
 C    -0.685862    -2.865044    -1.713432
 H    -1.461726    -3.466997    -1.231816
 H    -0.972177    -2.460458    -2.687506
 C     0.674942    -3.069846    -1.406916
 H     0.971956    -3.830937    -0.680323
 H     1.442016    -2.829514    -2.146759
 H     0.388556    -0.554348    -1.782041
Rh    -0.017744    -1.253146    -0.418981
 C    -1.282479     1.961194    -1.150930
 O    -3.045154    -0.003543    -1.299311
 O    -2.193646     0.690935     1.041440
 C     1.579806     1.084539     1.693897
 O     3.067461    -1.013822     1.011922
 O     2.528292     0.756564    -0.787744
 P     1.785499    -0.160085     0.374849
 P    -1.629005     0.305877    -0.476922
 C    -0.574548    -2.152111     1.190122
 O    -0.953399    -2.684848     2.131001
 C    -1.154903     3.055709    -0.293704
 H    -1.353587     2.924179     0.770673
 C    -0.983655     2.124356    -2.519589
 O    -1.081758     1.029018    -3.291539
 C    -0.634392     1.075580    -4.618815
 H    -1.246992     1.757691    -5.233177
 H    -0.732058     0.057080    -5.014879
 H     0.423000     1.383433    -4.678143
 C    -0.761887     4.304199    -0.772661
 H    -0.671545     5.147675    -0.085674
 C    -0.593446     3.377994    -3.002185
 H    -0.367644     3.517158    -4.059319
 C    -0.487674     4.458854    -2.127287
 H    -0.180741     5.431778    -2.518646
 C    -3.637062    -1.239466    -1.264020
 C    -3.831156    -1.918977    -0.062781
 H    -3.516591    -1.458900     0.874620
 C    -4.049997    -1.784663    -2.488636
 C    -3.823699    -1.022581    -3.756355
 H    -4.417494    -0.094475    -3.771776
 H    -2.772218    -0.712217    -3.835617
 H    -4.095658    -1.623795    -4.634561
 C    -4.425240    -3.179366    -0.071132
 H    -4.567068    -3.713931     0.870776
 C    -4.652478    -3.044325    -2.466656
 H    -4.974567    -3.487882    -3.412846
 C    -4.834727    -3.746124    -1.275052
 H    -5.300191    -4.734099    -1.289276
 C    -3.342745     1.323383     1.438172
 C    -4.208311     1.992045     0.572755
 H    -3.998825     2.021237    -0.495204
 C    -3.599975     1.255528     2.818723
 C    -2.644346     0.529577     3.713257
 H    -2.523277    -0.519925     3.401694
 H    -1.642707     0.984298     3.661624
 H    -2.988040     0.549776     4.756696
 C    -5.348617     2.607952     1.086597
 H    -6.025766     3.128697     0.405619
 C    -4.748774     1.883940     3.301572
 H    -4.959184     1.838358     4.373700
 C    -5.622914     2.558258     2.449753
 H    -6.516929     3.039789     2.851801
 C     1.600645     2.449341     1.399999
 H     1.825065     2.774341     0.383474
 C     1.241011     0.675059     2.999879
 O     1.160147    -0.652179     3.210458
 C     0.785649    -1.131968     4.474334
 H     1.528515    -0.863682     5.244646
 H     0.730796    -2.224077     4.388326
 H    -0.205309    -0.754352     4.774739
 C     1.330503     3.403259     2.379610
 H     1.357736     4.465068     2.127728
 C     0.985954     1.630003     3.988907
 H     0.742250     1.322536     5.005679
 C     1.033566     2.987639     3.672861
 H     0.828161     3.723406     4.454071
 C     3.217578    -2.365546     0.812816
 C     2.713095    -3.239162     1.771539
 H     2.198106    -2.812843     2.631293
 C     3.891764    -2.833633    -0.324542
 C     4.407616    -1.882537    -1.359569
 H     3.577808    -1.379114    -1.881159
 H     5.020931    -1.088788    -0.907812
 H     5.013559    -2.409706    -2.108692
 C     2.866091    -4.613668     1.609782
 H     2.462896    -5.298368     2.359444
 C     4.039652    -4.217661    -0.458318
 H     4.561580    -4.604565    -1.337810
 C     3.531619    -5.105015     0.488762
 H     3.657924    -6.181081     0.350036
 C     3.693110     1.474238    -0.758567
 C     4.582753     1.486637     0.315984
 H     4.374137     0.890637     1.203132
 C     3.946668     2.217222    -1.924558
 C     2.965707     2.173375    -3.054236
 H     2.808929     1.138825    -3.398751
 H     1.978922     2.543657    -2.734810
 H     3.311400     2.781138    -3.901792
 C     5.742483     2.256120     0.234334
 H     6.437220     2.263899     1.077414
 C     5.117080     2.976187    -1.974978
 H     5.325243     3.558300    -2.877021
 C     6.014196     3.003466    -0.907839
 H     6.923482     3.605033    -0.971741
