  98
scf done:    -2760.502452
 C     0.185413     0.470158    -3.749689
 H    -0.356092    -0.297113    -4.310790
 H    -0.306039     1.446841    -3.723527
 C     1.588725     0.387222    -3.614752
 H     2.132112    -0.440975    -4.079527
 H     2.169949     1.305350    -3.496628
 H     0.742730     1.366116    -1.403366
Rh     0.637788    -0.187386    -1.736404
 O    -2.534554    -1.022266    -1.684135
 C    -1.829413    -0.383143     0.846070
 C    -2.268664     1.639614    -1.188868
 O     1.593345     0.288966     1.465376
 C     2.551152    -1.974587     0.609943
 C     3.767936     0.455423    -0.122457
 P     2.106473    -0.313377    -0.015732
 P    -1.464675     0.028361    -0.896137
 C     0.507363    -2.063840    -2.119732
 O     0.400286    -3.185149    -2.326640
 C    -3.678622    -1.467335    -1.071967
 C    -3.633832    -2.677887    -0.383778
 H    -2.693999    -3.234232    -0.374953
 C    -4.858088    -0.721730    -1.114817
 H    -4.883671     0.223574    -1.657125
 C    -4.749987    -3.149809     0.312233
 C    -4.659587    -4.423114     1.101532
 H    -3.967700    -4.302926     1.951207
 H    -5.638412    -4.721630     1.502162
 H    -4.275002    -5.250460     0.485451
 C    -5.979187    -1.196841    -0.438587
 H    -6.907737    -0.621118    -0.466555
 C    -5.926098    -2.392148     0.276795
 H    -6.810544    -2.746087     0.813024
 C    -1.067159    -1.403154     1.424874
 H    -0.226056    -1.830029     0.874689
 C    -2.916793     0.144830     1.546545
 H    -3.530847     0.922683     1.087321
 C    -1.387844    -1.874852     2.693127
 H    -0.787002    -2.668790     3.143441
 C    -3.254036    -0.321155     2.821219
 C    -4.453219     0.234480     3.532060
 H    -4.438216     1.335124     3.542917
 H    -5.379844    -0.072897     3.020379
 H    -4.509214    -0.117807     4.571584
 C    -2.470750    -1.333964     3.385986
 H    -2.719372    -1.709078     4.382912
 C    -2.923064     1.837243    -2.411354
 H    -3.011226     1.008300    -3.116942
 C    -2.136639     2.705411    -0.293343
 H    -1.602942     2.563375     0.650472
 C    -3.463631     3.083270    -2.711680
 H    -3.980609     3.237258    -3.662055
 C    -2.690410     3.959812    -0.581635
 C    -2.568593     5.096791     0.390820
 H    -2.672554     4.749604     1.428351
 H    -1.580775     5.578370     0.312804
 H    -3.330167     5.866908     0.202383
 C    -3.355180     4.131928    -1.800661
 H    -3.795888     5.104323    -2.037575
 C     1.079413     1.522159     1.709033
 C     1.443021     2.653541     0.978685
 H     2.136815     2.559212     0.142111
 C     0.187791     1.630502     2.781549
 H    -0.105347     0.727484     3.319263
 C     0.939587     3.914002     1.322331
 C     1.316066     5.111461     0.499714
 H     2.400236     5.146654     0.313861
 H     0.821928     5.074698    -0.485538
 H     1.022098     6.049643     0.991166
 C    -0.300316     2.882953     3.132715
 H    -0.987994     2.973097     3.977213
 C     0.076826     4.020592     2.416422
 H    -0.308502     5.000977     2.706352
 C     2.352297    -2.366170     1.938018
 H     1.939068    -1.655300     2.654428
 C     3.081686    -2.883774    -0.307992
 H     3.232725    -2.572233    -1.346808
 C     2.678696    -3.664769     2.322065
 H     2.522974    -3.978241     3.357611
 C     3.413595    -4.188886     0.067094
 C     3.957651    -5.150970    -0.948210
 H     3.224359    -5.325259    -1.751780
 H     4.870430    -4.757225    -1.421984
 H     4.201861    -6.122041    -0.495675
 C     3.201252    -4.567021     1.397511
 H     3.447343    -5.585234     1.710991
 C     4.348905     0.653026    -1.374371
 H     3.784135     0.389531    -2.270626
 C     4.470326     0.803746     1.037655
 H     4.004293     0.644054     2.013731
 C     5.633530     1.191552    -1.458256
 H     6.096101     1.345374    -2.436277
 C     5.749107     1.357333     0.965771
 C     6.493538     1.755528     2.207115
 H     6.613929     2.849652     2.262713
 H     5.964442     1.431295     3.113844
 H     7.503476     1.317375     2.226061
 C     6.322087     1.541955    -0.301925
 H     7.325613     1.970710    -0.378128
