 102
scf done:    -3061.140483
 C    -1.321336     0.675500    -3.375029
 H    -1.781434    -0.111013    -3.981044
 H    -2.027181     1.444682    -3.047511
 C     0.044141     1.006151    -3.558050
 H     0.626890     0.476802    -4.318859
 H     0.396843     2.020268    -3.350638
 H    -0.361727     1.320462    -1.084284
Rh    -0.177744    -0.117775    -1.726140
 O    -2.042343     0.334426     1.080563
 C    -3.464623    -1.011901    -0.936850
 C    -1.540473    -2.215857     0.806680
 O     2.397360    -1.511594    -0.321134
 C     3.111637     1.019397    -1.069246
 C     1.410631     0.443120     1.296227
 P     1.703016     0.017805    -0.450524
 P    -1.798941    -0.711644    -0.198090
 C     0.229284    -1.790156    -2.567608
 O     0.541266    -2.765879    -3.084418
 C    -2.420867     1.627752     1.037847
 C    -2.682223     2.326295    -0.141402
 H    -2.570612     1.818690    -1.099817
 C    -2.581414     2.264417     2.274760
 H    -2.377814     1.692042     3.180193
 C    -3.097937     3.662234    -0.105763
 C    -3.354524     4.389226    -1.394544
 H    -2.426142     4.493512    -1.979290
 H    -4.067991     3.838921    -2.027924
 H    -3.759080     5.395934    -1.219366
 C    -3.002512     3.588298     2.313326
 H    -3.134534     4.082698     3.279402
 C    -3.257742     4.291296     1.132835
 H    -3.587389     5.332509     1.173929
 C    -3.431427    -1.835632    -2.067166
 H    -2.463439    -2.217023    -2.403072
 C    -4.711063    -0.492441    -0.526944
 O    -4.751336     0.277977     0.573958
 C    -5.836405     1.134802     0.786709
 H    -6.060508     1.737291    -0.110339
 H    -5.539686     1.809473     1.600742
 H    -6.747308     0.585738     1.086245
 C    -4.580536    -2.162609    -2.780502
 H    -4.516906    -2.814845    -3.653537
 C    -5.863951    -0.791225    -1.266471
 H    -6.825905    -0.379998    -0.958716
 C    -5.799553    -1.624834    -2.378982
 H    -6.713339    -1.849082    -2.934773
 C    -0.370897    -2.952794     0.629385
 H     0.366342    -2.605616    -0.095576
 C    -2.481602    -2.651490     1.766410
 O    -3.592957    -1.916520     1.885978
 C    -4.584944    -2.278552     2.798848
 H    -5.001154    -3.277788     2.580312
 H    -5.379182    -1.528572     2.697184
 H    -4.209876    -2.266251     3.837347
 C    -0.113447    -4.101023     1.378353
 H     0.813501    -4.656413     1.223020
 C    -2.225356    -3.800059     2.522673
 H    -2.944814    -4.142766     3.266743
 C    -1.043714    -4.514959     2.324974
 H    -0.857528    -5.409766     2.924533
 C     3.690055    -1.848901    -0.047737
 C     4.476928    -1.156246     0.869444
 H     4.063919    -0.292684     1.391884
 C     4.199134    -2.963875    -0.718343
 H     3.559100    -3.484770    -1.432919
 C     5.795022    -1.555475     1.116296
 C     6.648657    -0.758673     2.060546
 H     6.065122    -0.393100     2.918714
 H     7.492319    -1.349973     2.444305
 H     7.070145     0.124846     1.551147
 C     5.501912    -3.373903    -0.458122
 H     5.904828    -4.247968    -0.975810
 C     6.299391    -2.675235     0.448643
 H     7.325035    -3.002157     0.638349
 C     3.316470     0.916862    -2.448260
 H     2.621398     0.298040    -3.021292
 C     3.980678     1.843304    -0.321314
 O     3.790235     1.910778     1.007761
 C     4.548192     2.788381     1.787937
 H     5.618161     2.515320     1.794259
 H     4.152202     2.709012     2.808716
 H     4.446502     3.831970     1.442801
 C     4.351621     1.589233    -3.091717
 H     4.489530     1.483327    -4.169298
 C     5.007198     2.540520    -0.969284
 H     5.678138     3.182798    -0.398753
 C     5.190342     2.408597    -2.343808
 H     6.001268     2.957878    -2.828594
 C     1.423512    -0.533860     2.288649
 H     1.714433    -1.553259     2.030957
 C     1.007262     1.751926     1.621677
 O     1.007978     2.626191     0.601600
 C     0.539584     3.931883     0.800558
 H    -0.501121     3.939456     1.161633
 H     0.581646     4.426345    -0.177781
 H     1.179781     4.485633     1.510497
 C     1.063961    -0.222057     3.600579
 H     1.075394    -0.999521     4.366809
 C     0.658359     2.071114     2.934015
 H     0.343488     3.082340     3.190872
 C     0.689020     1.079066     3.916305
 H     0.405778     1.335300     4.940449
