  70
scf done:    -1994.053137
 C    -3.023620    -2.302386    -0.720812
 H    -3.557585    -2.813224     0.087071
 H    -3.643700    -1.599664    -1.285621
 C    -1.947831    -2.967209    -1.369545
 H    -1.666175    -3.974706    -1.047303
 H    -1.750246    -2.765768    -2.426154
 H    -1.414226    -0.505329    -1.386666
Rh    -1.174143    -1.403522    -0.101965
 C    -0.713227     2.019651     0.101662
 C    -3.497071     1.155537     0.492691
 C    -1.589035     0.923848     2.610690
 C     2.168142    -0.486261     0.743283
 C     2.058139    -2.662002    -1.028540
 C     1.477723     0.009530    -2.037616
 P     1.092575    -1.131490    -0.623509
 P    -1.740563     0.652907     0.783722
 C    -1.050988    -2.511544     1.441978
 O    -1.047143    -3.196214     2.366445
 C     0.433077     2.439853     0.784445
 H     0.652937     2.030030     1.770764
 C    -0.938658     2.547493    -1.189202
 O    -2.031274     2.102514    -1.843053
 C    -2.307212     2.569201    -3.133211
 H    -2.471535     3.660855    -3.146944
 H    -3.227015     2.065213    -3.455682
 H    -1.497563     2.317483    -3.839466
 C     1.331823     3.351295     0.230737
 H     2.219585     3.646261     0.793525
 C    -0.046652     3.469797    -1.745926
 H    -0.225303     3.875562    -2.741560
 C     1.086225     3.866813    -1.036361
 H     1.776978     4.583137    -1.487522
 H    -3.668551     0.992846    -0.578444
 C    -4.469660     0.332387     1.322913
 H    -4.413915     0.573211     2.395409
 H    -4.264164    -0.742688     1.207584
 H    -3.611933     2.235913     0.677630
 H    -5.506069     0.515107     1.000288
 H    -0.542413     0.720210     2.879132
 C    -2.039756     2.270119     3.153842
 H    -3.112259     2.442922     2.980875
 H    -1.491370     3.100103     2.683622
 H    -2.164161     0.096529     3.057988
 H    -1.869684     2.329672     4.240435
 C     1.656843    -0.530780     2.040381
 H     0.655895    -0.943290     2.171140
 C     3.476125     0.021911     0.576378
 O     4.006141    -0.024110    -0.664064
 C     5.268053     0.531817    -0.901457
 H     5.292174     1.608546    -0.659338
 H     5.468428     0.404376    -1.972966
 H     6.059002     0.018211    -0.327559
 C     2.362541    -0.051297     3.143631
 H     1.923704    -0.105769     4.142102
 C     4.181172     0.535483     1.671480
 H     5.179701     0.951601     1.537943
 C     3.621847     0.502134     2.948093
 H     4.189921     0.902258     3.791546
 H     1.968282    -3.294545    -0.130322
 C     1.578002    -3.412272    -2.258801
 H     1.745972    -2.832648    -3.179093
 H     0.503739    -3.633674    -2.190267
 H     3.117885    -2.374435    -1.122480
 H     2.118775    -4.365022    -2.369348
 H     2.504306    -0.206692    -2.360872
 C     0.516722    -0.040662    -3.212697
 H    -0.506266     0.207298    -2.897931
 H     0.477417    -1.036383    -3.678510
 H     1.494583     1.022863    -1.605122
 H     0.832965     0.678581    -3.985490
