  86
scf done:    -3000.131401
 C    -0.071338    -1.246238    -3.544593
 H     0.528743    -0.621228    -4.212072
 H     0.369925    -2.219597    -3.312231
 C    -1.473596    -1.088007    -3.496267
 H    -1.961365    -0.345106    -4.134022
 H    -2.095283    -1.950467    -3.242236
 H    -0.764391    -1.642770    -1.095028
Rh    -0.570744    -0.192456    -1.719855
 O     2.652538     0.370643    -1.826909
 C     1.872061     0.549218     0.773545
 C     2.175537    -1.989432    -0.560134
 O    -1.597877     0.099357     1.486495
 C    -2.491698     2.108399     0.111809
 C    -3.734093    -0.413771    -0.066367
 P    -2.067018     0.343012    -0.108742
 P     1.505235    -0.312883    -0.792988
 C    -0.335079     1.564047    -2.462662
 O    -0.159452     2.615984    -2.878232
 C     3.822478     0.908358    -1.351681
 C     3.851466     2.266541    -1.043083
 H     2.944592     2.854497    -1.202659
 C     4.957125     0.116109    -1.172038
 H     4.924405    -0.945087    -1.419975
 C     5.003518     2.857805    -0.516943
 C     4.999667     4.311124    -0.142073
 H     4.326055     4.492105     0.711435
 H     6.002724     4.658195     0.142051
 H     4.643220     4.938093    -0.973722
 C     6.112599     0.703582    -0.662407
 H     7.007938     0.093670    -0.519175
 C     6.135785     2.056754    -0.329729
 H     7.047031     2.501015     0.078804
 C     2.927983     0.193305     1.623690
 H     3.530663    -0.690633     1.408333
 C     1.133995     1.703670     1.054987
 H     0.317732     1.995081     0.390323
 C     3.229135     0.964275     2.740295
 H     4.048673     0.703828     3.412106
 C     1.428314     2.490883     2.163186
 H     0.859416     3.394097     2.390855
 C     2.474257     2.105191     2.993604
 F     2.763732     2.847776     4.057947
 C     2.813937    -2.626162    -1.632069
 H     3.004324    -2.070094    -2.552924
 C     1.915299    -2.713686     0.608317
 H     1.402619    -2.241722     1.447914
 C     3.207410    -3.957592    -1.533765
 H     3.710279    -4.468985    -2.356510
 C     2.302601    -4.045855     0.716665
 H     2.107905    -4.618437     1.625221
 C     2.944873    -4.650662    -0.357113
 F     3.317141    -5.924822    -0.258060
 C    -1.123280    -1.051700     2.031228
 C    -1.479796    -2.318298     1.567090
 H    -2.139573    -2.414775     0.703903
 C    -0.275465    -0.917951     3.135701
 H     0.007480     0.082375     3.467319
 C    -1.003223    -3.470247     2.205143
 C    -1.347589    -4.822612     1.655208
 H    -0.724160    -5.046878     0.773229
 H    -1.176688    -5.616772     2.395496
 H    -2.397844    -4.871219     1.331840
 C     0.184099    -2.060296     3.780867
 H     0.839963    -1.959108     4.648810
 C    -0.178144    -3.329322     3.325075
 H     0.188712    -4.220169     3.841337
 C    -3.017646     2.793880    -0.990506
 H    -3.171621     2.266197    -1.936210
 C    -2.293474     2.795996     1.313572
 H    -1.886299     2.264166     2.174504
 C    -3.344639     4.141633    -0.900149
 H    -3.755663     4.690175    -1.749239
 C    -2.608356     4.150019     1.412401
 H    -2.458345     4.705726     2.340050
 C    -3.130312     4.804421     0.304096
 F    -3.431946     6.096773     0.394765
 C    -4.257760    -0.991870    -1.224311
 H    -3.642832    -1.011325    -2.126227
 C    -4.502798    -0.393796     1.105227
 H    -4.094353     0.053915     2.014308
 C    -5.538027    -1.542192    -1.225219
 H    -5.967454    -1.998301    -2.118928
 C    -5.776071    -0.949025     1.120224
 H    -6.391648    -0.952385     2.021588
 C    -6.277357    -1.514162    -0.049941
 F    -7.496786    -2.044325    -0.037424
