  92
scf done:    -2606.256693
 C    -1.037430    -1.162413     3.738885
 H    -1.348459    -0.381016     4.438280
 H    -1.811294    -1.902984     3.520632
 C     0.325558    -1.528351     3.649597
 H     1.069366    -1.026918     4.275362
 H     0.597597    -2.542931     3.347578
 H    -0.631391    -1.729000     1.264325
Rh    -0.189251    -0.339445     1.914038
 C    -3.526975    -0.236766     0.660142
 O    -1.993310     1.984547     0.420183
 O    -1.470349     0.062998    -1.110228
 C     1.754713     0.490711    -0.925432
 O     3.110165    -0.289778     1.325639
 O     1.830803    -2.071604    -0.015421
 P     1.630086    -0.528915     0.587724
 P    -1.794725     0.336016     0.520298
 C     0.271380     1.342616     2.715008
 O     0.551295     2.350543     3.179395
 H    -4.092045     0.119292    -0.217489
 H    -3.910675     0.314141     1.535126
 C    -3.690551    -1.739094     0.852275
 H    -3.175202    -2.276327     0.041949
 H    -3.183169    -2.041672     1.783453
 C    -5.148161    -2.203754     0.885032
 H    -5.621250    -1.867586    -0.057180
 C    -5.206192    -3.726459     0.916709
 H    -4.676865    -4.163183     0.055576
 H    -6.245174    -4.090342     0.897133
 H    -4.732854    -4.117443     1.832803
 C    -5.927746    -1.599469     2.047271
 H    -6.967418    -1.961559     2.058213
 H    -5.965384    -0.500575     1.997247
 H    -5.468369    -1.875876     3.011360
 C    -2.895956     2.607086    -0.403009
 C    -4.064816     3.130798     0.150437
 H    -4.240587     3.014811     1.221641
 C    -2.627822     2.757361    -1.765376
 H    -1.704707     2.345132    -2.172534
 C    -4.975251     3.797583    -0.666354
 H    -5.889038     4.208956    -0.230991
 C    -3.546701     3.425081    -2.572797
 H    -3.336203     3.544421    -3.638390
 C    -4.722413     3.943181    -2.030167
 H    -5.437676     4.466754    -2.668165
 C    -1.893092    -1.021210    -1.827408
 C    -3.030357    -0.907767    -2.628978
 H    -3.562235     0.045514    -2.662444
 C    -1.171125    -2.216849    -1.780642
 H    -0.286280    -2.289420    -1.145005
 C    -3.460925    -2.007847    -3.368334
 H    -4.353878    -1.921228    -3.992143
 C    -1.611825    -3.308200    -2.526530
 H    -1.051376    -4.245213    -2.484204
 C    -2.758237    -3.211655    -3.315958
 H    -3.100485    -4.072159    -3.894997
 H     0.972219     0.081515    -1.585356
 H     2.728469     0.323956    -1.408442
 C     1.483133     1.968415    -0.673437
 H     0.493615     2.073032    -0.201734
 H     2.212753     2.374676     0.047488
 C     1.520612     2.829824    -1.937030
 H     0.812540     2.384469    -2.662652
 C     1.042460     4.241184    -1.616389
 H     0.029507     4.234217    -1.185119
 H     1.024280     4.874633    -2.516891
 H     1.713251     4.721075    -0.884450
 C     2.904345     2.851974    -2.577973
 H     2.918528     3.498081    -3.469485
 H     3.234064     1.850077    -2.892208
 H     3.655531     3.237282    -1.868203
 C     4.068072     0.628435     0.988280
 C     4.162785     1.798140     1.746177
 H     3.460169     1.952791     2.567483
 C     4.954819     0.397163    -0.064695
 H     4.887605    -0.531752    -0.632823
 C     5.133387     2.746127     1.434052
 H     5.200737     3.661878     2.026149
 C     5.920150     1.355433    -0.370415
 H     6.609162     1.173775    -1.198678
 C     6.011413     2.532348     0.370806
 H     6.769379     3.279324     0.125244
 C     2.929291    -2.477889    -0.724201
 C     4.028704    -2.999391    -0.040409
 H     3.996919    -3.045151     1.048983
 C     2.931722    -2.400708    -2.117969
 H     2.053521    -2.008129    -2.633804
 C     5.141990    -3.429044    -0.758709
 H     6.004807    -3.832093    -0.223277
 C     4.052197    -2.831337    -2.826443
 H     4.055351    -2.769558    -3.917292
 C     5.160934    -3.341306    -2.151081
 H     6.037131    -3.676544    -2.710249
