 110
scf done:    -2393.693558
 C     1.379731     1.726656    -3.069627
 H     2.205060     2.436419    -2.952523
 H     1.586791     0.918275    -3.777596
 C     0.041567     2.170421    -2.893085
 H    -0.148245     3.219023    -2.641620
 H    -0.763236     1.703285    -3.465432
 H     0.106612    -0.244390    -2.056871
Rh     0.639762     0.983894    -1.191223
 C     2.365098    -2.145389    -1.345451
 C     3.997581     0.207856    -1.119269
 C     2.631335    -0.858835     1.196796
 C    -0.925453    -0.763154     1.457881
 C    -1.917713     1.899045     1.039461
 C    -2.685495    -0.255797    -0.742150
 P    -1.214305     0.478212     0.095155
 P     2.352526    -0.446093    -0.582437
 C     1.168444     2.506161    -0.183023
 O     1.438574     3.450519     0.416219
 H     2.380208    -1.972343    -2.432117
 H     3.305909    -2.646284    -1.068329
 C     1.193404    -2.997713    -0.959930
 C     1.237050    -3.800207     0.187015
 H     2.146639    -3.830429     0.792201
 C     0.021577    -2.998309    -1.727048
 H    -0.020418    -2.375587    -2.623628
 C     0.133306    -4.565866     0.557224
 H     0.177421    -5.183205     1.457562
 C    -1.090434    -3.770316    -1.379014
 C    -2.318537    -3.786236    -2.243022
 H    -2.314001    -2.956879    -2.963955
 H    -2.385010    -4.725594    -2.816238
 H    -3.237689    -3.710497    -1.641398
 C    -1.022506    -4.551752    -0.218419
 H    -1.881089    -5.163463     0.073236
 H     3.928702     0.277726    -2.218274
 H     4.019845     1.253582    -0.768974
 C     5.262359    -0.523511    -0.695954
 H     5.341301    -0.529847     0.404935
 H     5.215481    -1.583415    -1.001686
 C     6.525497     0.100836    -1.275559
 H     6.573582     1.164619    -0.979774
 H     6.458540     0.102214    -2.378692
 C     7.805944    -0.602040    -0.846718
 H     7.866390    -0.601395     0.256240
 H     7.750573    -1.665376    -1.140799
 C     9.062822     0.024772    -1.428212
 H     9.970580    -0.504114    -1.100510
 H     9.162331     1.078292    -1.120976
 H     9.045803     0.005309    -2.529818
 H     1.786989    -1.499752     1.492936
 H     3.541526    -1.474696     1.297763
 C     2.692766     0.360226     2.102363
 H     3.565968     0.985327     1.843592
 H     1.811414     0.994040     1.906601
 C     2.737572     0.009367     3.582698
 H     3.626132    -0.614022     3.791286
 H     1.865772    -0.625002     3.829303
 C     2.745601     1.229294     4.492993
 H     3.618429     1.859336     4.246504
 H     1.860633     1.850844     4.267873
 C     2.764580     0.880041     5.972123
 H     2.768412     1.781629     6.603171
 H     3.657385     0.288587     6.231947
 H     1.882638     0.281469     6.252147
 H    -0.503764    -1.645133     0.950925
 H    -0.125845    -0.326450     2.074735
 C    -2.105038    -1.139467     2.298715
 C    -2.429509    -0.422298     3.457568
 H    -1.790448     0.405213     3.777243
 C    -2.923978    -2.213653     1.932722
 H    -2.655460    -2.799328     1.049837
 C    -3.550117    -0.766907     4.208998
 H    -3.789630    -0.205093     5.115329
 C    -4.055958    -2.570308     2.670738
 C    -4.928455    -3.707777     2.223400
 H    -5.698062    -3.358836     1.514385
 H    -4.342797    -4.485169     1.710555
 H    -5.452046    -4.175345     3.069783
 C    -4.361948    -1.829382     3.817799
 H    -5.237924    -2.095302     4.415875
 H    -2.746322     1.546883     1.676091
 H    -1.107608     2.225082     1.716173
 C    -2.358953     3.069062     0.170584
 H    -1.600717     3.250002    -0.610231
 H    -3.285993     2.801535    -0.365294
 C    -2.588367     4.347278     0.964120
 H    -1.648000     4.624546     1.474588
 H    -3.324127     4.159199     1.767626
 C    -3.059033     5.514346     0.107842
 H    -2.323797     5.686937    -0.697930
 H    -3.998340     5.234047    -0.401433
 C    -3.266751     6.797648     0.895587
 H    -3.605752     7.622020     0.249918
 H    -2.333452     7.120404     1.384540
 H    -4.021707     6.663057     1.687169
 H    -2.477157    -1.335051    -0.817342
 H    -3.551622    -0.151665    -0.066425
 C    -2.991930     0.294608    -2.125935
 H    -3.057702     1.394845    -2.099201
 H    -2.137980     0.070734    -2.785772
 C    -4.274204    -0.272854    -2.717585
 H    -5.128036    -0.013648    -2.064807
 H    -4.224223    -1.376994    -2.713215
 C    -4.553818     0.213030    -4.132786
 H    -4.596741     1.316621    -4.133473
 H    -3.697282    -0.049387    -4.778859
 C    -5.835012    -0.350826    -4.725276
 H    -6.008100     0.017094    -5.748026
 H    -6.712080    -0.072280    -4.118886
 H    -5.804013    -1.451707    -4.768856
