  82
scf done:    -2151.166253
 C     1.455932    -3.108606    -1.123634
 H     1.512351    -3.262432    -2.206370
 H     2.432273    -3.019571    -0.638406
 C     0.359149    -3.644954    -0.393326
 H    -0.421347    -4.204497    -0.919442
 H     0.517376    -3.975302     0.637173
 H     1.005684    -1.542823     0.787521
Rh     0.159412    -1.506521    -0.550112
 C     2.166081     1.103696     0.606979
 C     2.984026    -0.020004    -1.972600
 C     0.642945     1.883028    -1.713914
 C    -2.633797     0.484277    -0.101941
 C    -2.804021    -2.045503     1.269987
 C    -1.044618     0.157217     2.389652
 P    -1.556131    -0.711974     0.817103
 P     1.470733     0.388677    -0.945662
 C    -0.857085    -1.651954    -2.154786
 O    -1.462271    -1.846460    -3.113332
 C     1.731876     2.318926     1.143334
 H     1.039991     2.937783     0.574532
 C     3.062020     0.334760     1.386142
 O     3.488800    -0.820481     0.842656
 C     4.171998    -1.751211     1.633763
 H     5.163966    -1.379161     1.944607
 H     4.307145    -2.646952     1.014570
 H     3.589611    -2.021635     2.531080
 C     2.137001     2.764225     2.402179
 H     1.772965     3.719956     2.785748
 C     3.468903     0.771671     2.649943
 H     4.152646     0.166815     3.245578
 C     3.003706     1.983806     3.156958
 H     3.329945     2.313777     4.146045
 H     3.272829    -0.972153    -1.504644
 C     2.594014    -0.317536    -3.415242
 H     3.431744    -0.807593    -3.936854
 H     1.726276    -0.992124    -3.465264
 H     2.353292     0.598527    -3.976203
 C     4.176181     0.922986    -1.874089
 H     4.431247     1.157294    -0.830928
 H     5.059117     0.447072    -2.332337
 H     4.007781     1.871221    -2.402382
 H     0.021410     2.231106    -0.873824
 C     1.570961     3.015435    -2.142301
 H     0.982541     3.923669    -2.355226
 H     2.318428     3.269564    -1.377468
 H     2.109040     2.759088    -3.066823
 C    -0.333721     1.515885    -2.826213
 H    -1.114853     0.835168    -2.467773
 H    -0.834867     2.428039    -3.187999
 H     0.162035     1.045319    -3.687016
 C    -3.513323    -0.071995    -1.042333
 H    -3.577933    -1.158102    -1.129058
 C    -2.550134     1.893116    -0.064524
 O    -1.659405     2.448461     0.792453
 C    -1.646970     3.833738     0.984807
 H    -1.324847     4.374197     0.076786
 H    -0.924637     4.028214     1.788255
 H    -2.636392     4.212550     1.293869
 C    -4.297695     0.702982    -1.891098
 H    -4.963660     0.219980    -2.608539
 C    -3.343797     2.680116    -0.907403
 H    -3.273102     3.766889    -0.865665
 C    -4.215158     2.088666    -1.816969
 H    -4.820753     2.719135    -2.471919
 H    -2.949006    -2.531870     0.290010
 C    -2.163954    -3.088548     2.179951
 H    -2.766716    -4.010644     2.178200
 H    -1.148337    -3.341616     1.846923
 H    -2.112986    -2.734396     3.220043
 C    -4.163246    -1.604148     1.800538
 H    -4.625713    -0.820005     1.185208
 H    -4.850696    -2.466124     1.816772
 H    -4.093042    -1.227023     2.829739
 H    -0.473144     0.996207     1.969545
 C    -2.182147     0.724289     3.231213
 H    -1.784507     1.472892     3.936285
 H    -2.957572     1.213064     2.625461
 H    -2.663871    -0.060211     3.833750
 C    -0.070462    -0.645656     3.245426
 H     0.712978    -1.107537     2.628612
 H     0.418577     0.030957     3.964139
 H    -0.570834    -1.438174     3.819918
