  92
scf done:    -3003.030974
 C    -0.288124    -3.672802    -1.492908
 H    -1.082732    -4.296102    -1.073551
 H    -0.375329    -3.488845    -2.567159
 C     0.984697    -3.651223    -0.877882
 H     1.169346    -4.257005     0.013921
 H     1.877989    -3.443842    -1.470795
 H     0.609753    -1.290924    -1.749605
Rh    -0.058137    -1.809473    -0.404702
 C    -1.738953     0.304641    -2.699025
 O    -3.298651    -1.107261    -1.132964
 O    -1.967168     0.831649    -0.021696
 C     0.775892     0.553772     2.044351
 O     2.844854    -0.797545     1.128809
 O     1.758245     0.876039    -0.517475
 P     1.345073    -0.334482     0.558439
 P    -1.749714    -0.475390    -1.054124
 C    -0.798145    -2.536173     1.220454
 O    -1.188737    -2.993765     2.193190
 H    -2.743824     0.678838    -2.946783
 H    -1.522892    -0.533292    -3.380865
 C    -0.680717     1.396345    -2.795042
 H    -1.048016     2.285173    -2.255536
 H     0.235939     1.074727    -2.272365
 C    -0.304019     1.804260    -4.220862
 H    -1.235679     2.041451    -4.768597
 C     0.555972     3.062822    -4.182635
 H     0.027256     3.896850    -3.695040
 H     0.839725     3.389128    -5.195020
 H     1.484500     2.882573    -3.615480
 C     0.413471     0.681101    -4.961490
 H     0.679147     0.986344    -5.985210
 H    -0.200513    -0.228904    -5.040661
 H     1.344816     0.406951    -4.438416
 C    -3.734712    -1.959074    -0.149761
 C    -4.093808    -1.463287     1.104419
 H    -4.015432    -0.393169     1.303185
 C    -3.822568    -3.323668    -0.421758
 H    -3.531711    -3.685281    -1.409001
 C    -4.539921    -2.336658     2.092290
 H    -4.821881    -1.978270     3.083623
 C    -4.269161    -4.199899     0.562804
 H    -4.344460    -5.273124     0.379686
 C    -4.617930    -3.694825     1.810277
 F    -5.039327    -4.532675     2.755611
 C    -2.778918     1.920087    -0.175781
 C    -2.322866     3.124988     0.368862
 H    -1.355935     3.144862     0.874072
 C    -4.030896     1.868701    -0.796394
 H    -4.402745     0.923887    -1.192849
 C    -3.096221     4.277116     0.278405
 H    -2.755419     5.224528     0.699722
 C    -4.803202     3.025130    -0.894348
 H    -5.781901     3.007693    -1.377276
 C    -4.329242     4.215852    -0.361015
 F    -5.071422     5.318285    -0.455412
 H     0.261349    -0.227701     2.630250
 H    -0.032662     1.194153     1.655260
 C     1.761952     1.306937     2.925871
 H     2.558999     0.613857     3.237096
 H     2.259837     2.105921     2.355546
 C     1.116481     1.933018     4.165234
 H     0.623311     1.123634     4.736528
 C     2.191109     2.549657     5.053178
 H     2.947093     1.804743     5.346109
 H     1.759510     2.973239     5.973118
 H     2.713865     3.363685     4.523677
 C     0.054872     2.966215     3.800745
 H    -0.358929     3.444906     4.701506
 H    -0.789827     2.521571     3.252936
 H     0.488218     3.760790     3.169134
 C     3.637307    -1.680351     0.446476
 C     4.223663    -2.720419     1.167225
 H     4.014322    -2.804551     2.234889
 C     3.878309    -1.549448    -0.923393
 H     3.405652    -0.740916    -1.482928
 C     5.053848    -3.633123     0.524076
 H     5.522768    -4.456435     1.065719
 C     4.703357    -2.466222    -1.570837
 H     4.902459    -2.390425    -2.641231
 C     5.281385    -3.496818    -0.840686
 F     6.072170    -4.372764    -1.460247
 C     2.357348     2.062865    -0.195923
 C     3.720434     2.125261     0.099881
 H     4.315928     1.211552     0.097780
 C     1.583561     3.223779    -0.208682
 H     0.527032     3.149744    -0.469084
 C     4.300507     3.349313     0.420960
 H     5.361207     3.427591     0.665740
 C     2.160882     4.449696     0.110245
 H     1.577570     5.372195     0.110343
 C     3.513180     4.495461     0.429741
 F     4.069333     5.665097     0.740395
