  62
scf done:    -2137.679904
 C     0.309635    -3.705743     0.443307
 H     0.127805    -4.242342    -0.492668
 H     1.327055    -3.801268     0.830057
 C    -0.765272    -3.448631     1.323004
 H    -1.770189    -3.794248     1.061145
 H    -0.582015    -3.359653     2.396684
 H     0.797078    -1.428420     1.516728
Rh    -0.196204    -1.605777     0.293815
 C     2.227250     0.824502    -0.643806
 O     2.977119    -1.804830    -0.415815
 O     1.700291    -0.940044    -2.450522
 C    -1.702730     1.516849    -0.013929
 O    -2.355935     0.216882     2.248458
 O    -0.057834     1.173328     2.058911
 P    -1.105611     0.262778     1.178493
 P     1.659231    -0.902902    -0.794719
 C    -1.480439    -1.841222    -1.112086
 O    -2.270631    -2.006273    -1.928851
 C     2.108206     1.732811    -1.696176
 H     1.770178     1.363508    -2.665393
 C     2.664825     1.284366     0.615098
 O     2.829900     0.340610     1.553222
 C     3.048938     0.709442     2.885135
 H     4.023404     1.212585     3.014503
 H     3.046921    -0.220385     3.467022
 H     2.242436     1.361905     3.254321
 C     2.399696     3.084619    -1.512191
 H     2.302732     3.783641    -2.345300
 C     2.928784     2.643363     0.811215
 H     3.252862     3.008546     1.786085
 C     2.794339     3.533697    -0.255296
 H     3.009843     4.592964    -0.093870
 C     4.264305    -1.421162    -0.845518
 H     4.256419    -1.069540    -1.890203
 H     4.669338    -0.624066    -0.201209
 H     4.913936    -2.304695    -0.769912
 C     1.318467    -2.121082    -3.115290
 H     1.920762    -2.983432    -2.783715
 H     0.254044    -2.354424    -2.953854
 H     1.487299    -1.959882    -4.188987
 C    -0.899835     2.598609    -0.375272
 H     0.057335     2.740032     0.130832
 C    -2.915457     1.308818    -0.698625
 O    -3.626371     0.224437    -0.324306
 C    -4.767121    -0.134597    -1.053786
 H    -5.552694     0.638004    -0.988174
 H    -5.142883    -1.063608    -0.607191
 H    -4.525353    -0.322926    -2.113242
 C    -1.291185     3.481292    -1.381871
 H    -0.646143     4.320098    -1.650556
 C    -3.310609     2.186727    -1.711340
 H    -4.247228     2.032095    -2.247258
 C    -2.496305     3.270875    -2.042959
 H    -2.814467     3.951361    -2.836674
 C    -3.130793    -0.935408     2.468373
 H    -2.675600    -1.812778     1.981367
 H    -3.197594    -1.117926     3.552088
 H    -4.142859    -0.783417     2.063097
 C    -0.523266     2.243227     2.855087
 H    -1.246093     2.877402     2.316398
 H    -1.004038     1.867674     3.770838
 H     0.351676     2.854010     3.121545
