 102
scf done:    -3061.091318
 C    -0.684322     1.127979    -3.215210
 H    -1.224802     0.453397    -3.886098
 H    -1.235741     2.035692    -2.955404
 C     0.731280     1.124024    -3.224025
 H     1.253582     0.450208    -3.911212
 H     1.287638     2.033354    -2.980132
 H     0.040642     1.654646    -0.892243
Rh     0.008023     0.165879    -1.420823
 C    -1.759329     1.344061     1.352759
 C    -3.452888     0.702711    -0.897497
 C    -2.458782    -1.335640     0.748010
 C     1.732276    -0.948940     1.530591
 C     3.364608    -0.868928    -0.772318
 C     2.588663     1.568803     0.487848
 P     1.889577    -0.037423    -0.065498
 P    -1.886729     0.202755    -0.081269
 C    -0.002280    -1.614661    -2.119068
 O     0.023571    -2.672377    -2.568805
 C    -1.533275     0.859075     2.642332
 H    -1.533670    -0.219701     2.810179
 C    -1.717352     2.741371     1.142926
 O    -1.888668     3.154233    -0.123761
 C    -1.671223     4.496391    -0.455373
 H    -2.410583     5.162440     0.022894
 H    -1.782009     4.567365    -1.544389
 H    -0.654096     4.820159    -0.174848
 C    -1.283027     1.721735     3.710323
 H    -1.096177     1.313550     4.705538
 C    -1.490891     3.610071     2.215507
 H    -1.470637     4.688403     2.056054
 C    -1.271429     3.094985     3.493679
 H    -1.083846     3.782884     4.321668
 C    -4.412668     1.539199    -0.310731
 H    -4.226233     1.977194     0.672859
 C    -3.729556     0.161030    -2.152799
 H    -2.986964    -0.485926    -2.626220
 C    -5.603906     1.824050    -0.961202
 H    -6.353838     2.479164    -0.513445
 C    -4.925973     0.430131    -2.815996
 H    -5.103312    -0.014203    -3.795640
 C    -5.872266     1.271581    -2.221155
 O    -7.054041     1.605303    -2.780044
 C    -7.374151     1.082977    -4.037751
 H    -7.420408    -0.020600    -4.026198
 H    -8.364848     1.475920    -4.300038
 H    -6.650373     1.397102    -4.810797
 C    -1.648039    -2.474742     0.747547
 H    -0.681966    -2.434295     0.243740
 C    -3.699234    -1.405924     1.391233
 H    -4.360390    -0.536198     1.395336
 C    -2.057003    -3.643073     1.375780
 H    -1.431821    -4.537540     1.382355
 C    -4.122181    -2.569288     2.027666
 H    -5.096636    -2.585215     2.516441
 C    -3.295671    -3.701344     2.023687
 O    -3.611502    -4.874451     2.607814
 C    -4.841366    -4.992257     3.265264
 H    -5.691976    -4.834896     2.578688
 H    -4.890591    -6.014765     3.660929
 H    -4.929017    -4.280755     4.105475
 C     1.712627    -0.329183     2.780008
 H     1.844466     0.752002     2.842859
 C     1.574625    -2.350907     1.477129
 O     1.576972    -2.888957     0.241216
 C     1.636089    -4.277554     0.072325
 H     2.533841    -4.701230     0.553917
 H     1.682500    -4.452403    -1.009273
 H     0.739033    -4.779367     0.473718
 C     1.535874    -1.066573     3.952310
 H     1.521333    -0.555854     4.917488
 C     1.419413    -3.096313     2.646489
 H     1.304467    -4.179500     2.599958
 C     1.392720    -2.447494     3.881509
 H     1.260221    -3.036665     4.792074
 C     4.397204    -1.366240     0.039405
 H     4.327857    -1.267486     1.126010
 C     3.478931    -1.016766    -2.151945
 H     2.674682    -0.640588    -2.786943
 C     5.501537    -1.990858    -0.516596
 H     6.307084    -2.385256     0.106016
 C     4.587211    -1.639864    -2.728290
 H     4.637451    -1.739017    -3.812825
 C     5.606646    -2.133949    -1.909172
 O     6.713037    -2.758122    -2.360578
 C     6.871835    -2.932147    -3.740126
 H     6.908696    -1.966596    -4.275125
 H     7.826469    -3.453962    -3.884518
 H     6.061377    -3.544626    -4.173578
 C     1.732355     2.506738     1.087561
 H     0.677237     2.264813     1.218972
 C     3.925189     1.925752     0.309491
 H     4.617789     1.228877    -0.165811
 C     2.198339     3.736876     1.517301
 H     1.530477     4.454884     1.997312
 C     4.405871     3.172955     0.717282
 H     5.455357     3.415369     0.548204
 C     3.544464     4.085843     1.331296
 O     3.910428     5.308770     1.766571
 C     5.240986     5.709664     1.603775
 H     5.534136     5.741658     0.539313
 H     5.319935     6.720767     2.023350
 H     5.939949     5.044925     2.141961
