  98
scf done:    -2609.080407
 C    -2.039742     2.745482    -0.179292
 H    -2.476395     3.015680    -1.146164
 H    -2.765715     2.384666     0.552948
 C    -0.848962     3.386549     0.250029
 H    -0.384172     4.135344    -0.397003
 H    -0.660826     3.538091     1.316442
 H    -0.771872     1.072121     1.183856
Rh    -0.405442     1.349954    -0.327372
 C    -1.911268    -1.558155     0.907722
 O    -2.758323    -0.856167    -1.495608
 O    -0.392956    -1.784294    -1.306963
 C     2.718893    -0.366875    -0.582864
 O     2.645114     1.762953     1.123472
 O     1.454458    -0.368123     1.756045
 P     1.611888     0.647417     0.476946
 P    -1.388706    -0.676573    -0.600108
 C     0.026630     1.870905    -2.118634
 O     0.264290     2.254593    -3.175139
 C    -1.081706    -2.539967     1.450703
 H    -0.166456    -2.804466     0.919814
 C    -3.043099    -1.142583     1.638052
 O    -3.753311    -0.121287     1.123653
 C    -4.808836     0.425788     1.863890
 H    -5.622549    -0.303874     2.019249
 H    -5.195841     1.267482     1.275976
 H    -4.465247     0.799306     2.843731
 C    -1.385703    -3.154716     2.664527
 H    -0.723988    -3.922435     3.070170
 C    -3.356739    -1.764613     2.851104
 H    -4.236982    -1.460250     3.417192
 C    -2.531440    -2.770736     3.352449
 H    -2.787009    -3.243459     4.303947
 C    -2.958687    -0.057467    -2.649704
 H    -2.588953     0.964833    -2.454622
 H    -2.372685    -0.468794    -3.491941
 C    -4.432877    -0.038838    -2.985539
 H    -4.560280     0.509102    -3.935837
 H    -4.767834    -1.073839    -3.175047
 C    -5.287100     0.585091    -1.892122
 H    -4.953729     1.625226    -1.725805
 H    -5.076614     0.049921    -0.953827
 C    -6.774572     0.558766    -2.199996
 H    -7.007185     1.109301    -3.126218
 H    -7.135899    -0.473863    -2.333848
 H    -7.365253     1.012727    -1.389289
 C    -0.855339    -3.037488    -1.792009
 H    -1.432599    -3.559972    -1.008162
 H    -1.540534    -2.872233    -2.639889
 C     0.338224    -3.862745    -2.219863
 H    -0.042456    -4.808768    -2.644211
 H     0.857565    -3.338008    -3.040296
 C     1.329780    -4.152809    -1.101707
 H     0.798291    -4.635216    -0.261775
 H     1.716558    -3.195336    -0.715969
 C     2.484183    -5.034768    -1.546737
 H     2.131470    -6.023138    -1.884242
 H     3.031595    -4.573709    -2.383524
 H     3.206230    -5.196929    -0.731921
 C     2.386385    -0.552830    -1.923044
 H     1.471644    -0.093261    -2.297182
 C     3.871261    -1.010924    -0.077680
 O     4.177844    -0.788374     1.213865
 C     5.280999    -1.433690     1.783737
 H     5.182522    -2.531911     1.733647
 H     5.310612    -1.126880     2.836852
 H     6.227340    -1.137093     1.298333
 C     3.169951    -1.332751    -2.772360
 H     2.888916    -1.456031    -3.819885
 C     4.651503    -1.810190    -0.919947
 H     5.541504    -2.312282    -0.540864
 C     4.299648    -1.960358    -2.261527
 H     4.924139    -2.582548    -2.907487
 C     3.782352     2.296326     0.472953
 H     4.318849     2.865738     1.249696
 H     4.447839     1.480660     0.145431
 C     3.437892     3.198389    -0.695612
 H     4.383667     3.518566    -1.168067
 H     2.904694     2.607004    -1.461211
 C     2.603444     4.406901    -0.303033
 H     3.184042     5.035441     0.395596
 H     1.727593     4.049488     0.259395
 C     2.149135     5.234434    -1.493164
 H     3.005518     5.620726    -2.069954
 H     1.535766     4.632261    -2.182202
 H     1.544266     6.098397    -1.177807
 C     1.830029    -0.049765     3.084946
 H     1.848542    -1.015591     3.616148
 H     2.849113     0.364757     3.089788
 C     0.856413     0.906093     3.747338
 H     1.269702     1.196773     4.729850
 H     0.819784     1.831281     3.146335
 C    -0.541755     0.329506     3.908966
 H    -0.515691    -0.494431     4.643402
 H    -0.840529    -0.130412     2.954924
 C    -1.577937     1.361571     4.316344
 H    -1.301878     1.875319     5.251961
 H    -1.689847     2.131227     3.534900
 H    -2.564255     0.897100     4.471672
