  74
scf done:    -1922.306947
 C     3.319061    -0.957131     2.178629
 H     4.297935    -1.283560     1.812955
 H     3.351375    -0.041999     2.777791
 C     2.310184    -1.924754     2.434824
 H     2.525967    -2.984339     2.265717
 H     1.579978    -1.744225     3.229747
 H     1.082016     0.143968     1.623638
Rh     1.823542    -0.857883     0.630562
 C     1.970861     2.686272     0.296273
 C     4.244216     1.228437    -0.667789
 C     1.816277     1.343806    -2.235729
 C    -1.227927    -0.334358    -1.054531
 C    -0.676328    -3.116028    -0.466581
 C    -1.456131    -1.325084     1.694163
 P    -0.371134    -1.420876     0.196463
 P     2.405901     1.063023    -0.505330
 C     2.673444    -2.086665    -0.544260
 O     3.179288    -2.838870    -1.253038
 H     2.433796     2.643366     1.293752
 H     2.459497     3.495089    -0.269223
 C     0.500198     2.957215     0.405854
 C    -0.184036     3.610999    -0.625664
 H     0.362550     3.941795    -1.512531
 C    -0.224584     2.561206     1.537971
 H     0.301914     2.050376     2.347459
 C    -1.551396     3.859386    -0.521922
 H    -2.073213     4.373937    -1.332315
 C    -1.595458     2.803212     1.660414
 C    -2.352128     2.373850     2.884625
 H    -1.710683     1.814329     3.579293
 H    -2.761117     3.242008     3.425814
 H    -3.206182     1.729084     2.620161
 C    -2.252232     3.462362     0.612629
 H    -3.323563     3.668779     0.690590
 H     4.583582     0.260514    -1.071455
 C     4.810424     2.382654    -1.478285
 H     4.486674     3.362532    -1.095017
 H     4.516380     2.324815    -2.537318
 H     4.611299     1.246808     0.371662
 H     5.911094     2.373184    -1.447405
 H     2.243247     2.286722    -2.617452
 C     2.125877     0.183837    -3.166709
 H     1.675439    -0.748582    -2.794258
 H     3.208614     0.005632    -3.260282
 H     0.728825     1.498294    -2.165659
 H     1.732840     0.371602    -4.177548
 H    -0.991792     0.691383    -0.731224
 H    -0.683935    -0.510502    -1.996205
 C    -2.703171    -0.505410    -1.233252
 C    -3.234092    -1.502794    -2.062953
 H    -2.562139    -2.139468    -2.643978
 C    -3.589529     0.316927    -0.532033
 H    -3.177131     1.113612     0.091739
 C    -4.611084    -1.683172    -2.150185
 H    -5.016604    -2.465060    -2.797155
 C    -4.976016     0.149829    -0.606426
 C    -5.886198     1.049609     0.179091
 H    -5.705235     0.950911     1.261722
 H    -5.720267     2.107394    -0.080150
 H    -6.944492     0.818690    -0.006186
 C    -5.478207    -0.869642    -1.420814
 H    -6.558608    -1.020580    -1.494033
 H    -0.222520    -3.129908    -1.472246
 C    -0.071368    -4.211861     0.397253
 H    -0.499464    -4.214202     1.411479
 H     1.014066    -4.077161     0.505057
 H    -1.759239    -3.267723    -0.600521
 H    -0.253482    -5.204124    -0.043139
 H    -1.654206    -0.247879     1.821694
 C    -2.742947    -2.136186     1.733567
 H    -2.541227    -3.217415     1.712937
 H    -3.415623    -1.903967     0.897044
 H    -0.796693    -1.600536     2.531560
 H    -3.291127    -1.929204     2.666562
