  90
scf done:    -2928.312719
 C    -1.906738     3.074955     1.656370
 H    -2.624537     3.687526     1.101467
 H    -2.313219     2.649648     2.578879
 C    -0.523568     3.364683     1.562529
 H    -0.177947     4.183555     0.924171
 H     0.138995     3.147047     2.404615
 H    -0.634035     0.864490     1.808185
Rh    -0.923474     1.583936     0.423719
 C    -3.270796    -0.960681     1.528493
 C    -3.948829     0.252888    -0.863617
 C    -1.741849    -1.547199    -0.913881
 C     1.341700     0.377452    -1.920446
 C     2.450468     2.198273     0.043068
 C     1.981527    -0.535458     0.778898
 P     1.206178     0.859708    -0.119162
 P    -2.413679    -0.147713     0.069649
 C    -1.193399     2.469888    -1.243247
 O    -1.309091     2.993355    -2.259931
 H    -3.969665    -0.170682     1.846095
 H    -3.877350    -1.785658     1.124788
 C    -2.453091    -1.418330     2.696589
 C    -2.236292    -2.781733     2.937759
 H    -2.683443    -3.526564     2.274011
 C    -1.905461    -0.488603     3.585889
 H    -2.093779     0.573778     3.419523
 C    -1.471741    -3.190743     4.027218
 H    -1.319017    -4.256595     4.214196
 C    -1.110713    -0.879700     4.668522
 C    -0.477203     0.157283     5.547796
 H     0.345780     0.661023     5.013922
 H    -1.198914     0.936857     5.834651
 H    -0.062519    -0.283494     6.464965
 C    -0.902573    -2.246585     4.880690
 H    -0.294302    -2.573816     5.728265
 C    -4.375390     1.582525    -0.937896
 H    -3.757022     2.360610    -0.484744
 C    -4.755226    -0.746307    -1.428264
 H    -4.443079    -1.792956    -1.381905
 C    -5.570250     1.919120    -1.569846
 H    -5.910999     2.953699    -1.637599
 C    -5.947998    -0.426115    -2.067328
 H    -6.581447    -1.191988    -2.518551
 C    -6.339233     0.907839    -2.130104
 F    -7.477972     1.218692    -2.742250
 C    -1.050368    -2.600760    -0.302456
 H    -0.993091    -2.663861     0.783622
 C    -1.759717    -1.488542    -2.316465
 H    -2.271456    -0.664579    -2.820190
 C    -0.406767    -3.576821    -1.059846
 H     0.142554    -4.391785    -0.585107
 C    -1.125542    -2.459462    -3.086477
 H    -1.130620    -2.417675    -4.177033
 C    -0.456542    -3.495233    -2.444358
 F     0.178205    -4.413117    -3.174715
 H     0.486630    -0.295542    -2.075764
 H     1.118540     1.300838    -2.476480
 C     2.610258    -0.261119    -2.378610
 C     3.741302     0.492789    -2.715550
 H     3.693835     1.583985    -2.700070
 C     2.700007    -1.655860    -2.410023
 H     1.819280    -2.243451    -2.143032
 C     4.929697    -0.150795    -3.052837
 H     5.810229     0.441153    -3.314818
 C     3.883385    -2.318108    -2.744687
 C     3.940657    -3.817510    -2.714730
 H     2.968451    -4.256966    -2.981461
 H     4.702311    -4.210955    -3.403215
 H     4.193820    -4.175476    -1.702142
 C     5.004193    -1.543574    -3.063585
 H     5.943115    -2.035952    -3.331677
 C     3.381829     2.234613     1.086436
 H     3.439474     1.405671     1.794495
 C     2.382436     3.295485    -0.828503
 H     1.635608     3.319406    -1.626249
 C     4.243953     3.318639     1.242884
 H     4.974753     3.353578     2.052872
 C     3.242365     4.378890    -0.691573
 H     3.199658     5.232868    -1.369954
 C     4.169111     4.374657     0.346023
 F     4.994136     5.410227     0.484278
 C     3.308112    -0.930920     0.531207
 H     3.928576    -0.374416    -0.172678
 C     1.235458    -1.252043     1.719913
 H     0.218892    -0.928871     1.951727
 C     3.859349    -2.028149     1.183480
 H     4.886798    -2.344147     0.994638
 C     1.774384    -2.353968     2.380265
 H     1.191989    -2.909409     3.116207
 C     3.078331    -2.732574     2.093723
 F     3.601554    -3.787281     2.715535
