 104
scf done:    -2763.400639
 C    -1.265841    -2.397568    -3.016037
 H    -1.863700    -3.275172    -2.752429
 H    -1.802187    -1.653583    -3.612388
 C     0.138660    -2.526633    -3.163379
 H     0.613492    -3.501002    -3.012129
 H     0.661865    -1.875372    -3.868731
 H    -0.195597    -0.194978    -2.217133
Rh    -0.300238    -1.498365    -1.310782
 C    -2.962975     0.771056    -1.546775
 O    -3.223278    -1.012402     0.363993
 O    -1.458675     0.815662     0.762485
 C     1.298551    -0.691555     1.646688
 O     3.050710    -0.938311    -0.240344
 O     1.451589     1.069224    -0.521948
 P     1.431298    -0.557275    -0.175896
 P    -1.960480    -0.254744    -0.424624
 C    -0.303721    -3.146056    -0.307547
 O    -0.227228    -4.148926     0.236280
 H    -2.283280     1.561682    -1.905702
 H    -3.136562     0.113573    -2.415290
 C    -4.270541     1.349367    -1.026378
 H    -4.931863     0.525937    -0.713559
 H    -4.082873     1.952783    -0.125085
 C    -4.969346     2.218986    -2.061831
 H    -5.173032     1.624162    -2.971195
 H    -4.285512     3.027779    -2.377446
 C    -6.266669     2.829845    -1.550991
 H    -6.944264     2.020376    -1.226283
 H    -6.049544     3.419744    -0.642923
 C    -6.967535     3.705662    -2.576617
 H    -7.899210     4.134195    -2.177144
 H    -7.226458     3.132807    -3.481729
 H    -6.324558     4.543258    -2.891773
 C    -3.011756    -2.131694     1.125311
 C    -2.225936    -2.071725     2.275148
 H    -1.772359    -1.120311     2.554982
 C    -3.616948    -3.326069     0.709035
 C    -4.426862    -3.351696    -0.549879
 H    -4.830038    -4.355147    -0.741581
 H    -5.266464    -2.641165    -0.498621
 H    -3.812447    -3.052030    -1.413574
 C    -2.031187    -3.221342     3.037128
 H    -1.410417    -3.177707     3.935115
 C    -3.412722    -4.461464     1.497210
 H    -3.871886    -5.404555     1.188881
 C    -2.626375    -4.418687     2.647744
 H    -2.475300    -5.325348     3.237443
 C    -1.725552     2.153810     0.889653
 C    -1.081874     3.065409     0.054637
 H    -0.380793     2.686138    -0.690727
 C    -2.599073     2.573984     1.905418
 C    -3.260060     1.569549     2.798277
 H    -3.761281     0.783165     2.214005
 H    -2.520825     1.062011     3.439103
 H    -4.000616     2.049576     3.451989
 C    -1.326335     4.428743     0.203746
 H    -0.820671     5.142994    -0.449853
 C    -2.822009     3.947940     2.033975
 H    -3.503938     4.297313     2.814153
 C    -2.202089     4.871322     1.192273
 H    -2.398893     5.938513     1.316228
 H     0.536849     0.062547     1.906507
 H     0.804678    -1.662645     1.817107
 C     2.550589    -0.577438     2.503497
 H     3.192460    -1.453188     2.319280
 H     3.149628     0.293821     2.199928
 C     2.222065    -0.474516     3.985716
 H     1.611716    -1.344264     4.292253
 H     1.582264     0.411505     4.157427
 C     3.456481    -0.381537     4.871350
 H     4.091902    -1.267848     4.697750
 H     4.061776     0.485125     4.551224
 C     3.132630    -0.263750     6.351708
 H     4.044591    -0.197460     6.964165
 H     2.557480    -1.134686     6.705416
 H     2.527553     0.633936     6.558170
 C     3.873335    -0.931488    -1.335493
 C     3.466750    -1.430289    -2.569579
 H     2.454180    -1.820630    -2.670187
 C     5.166023    -0.419311    -1.136049
 C     5.576065     0.103739     0.205673
 H     4.952410     0.961483     0.503114
 H     5.455411    -0.663022     0.985923
 H     6.624924     0.429581     0.195093
 C     4.349510    -1.402061    -3.647283
 H     4.027122    -1.787773    -4.617277
 C     6.030624    -0.410755    -2.233876
 H     7.040538    -0.013277    -2.100129
 C     5.633762    -0.888888    -3.482933
 H     6.331000    -0.865023    -4.323373
 C     2.370285     2.016476    -0.151858
 C     2.387794     2.506345     1.155552
 H     1.663286     2.122955     1.874624
 C     3.211672     2.548704    -1.141820
 C     3.127332     2.102813    -2.570521
 H     4.000641     1.493530    -2.850871
 H     2.229883     1.496806    -2.745629
 H     3.102685     2.974083    -3.242420
 C     3.304597     3.487239     1.519353
 H     3.319283     3.862237     2.545182
 C     4.122330     3.536702    -0.746677
 H     4.793802     3.957158    -1.500580
 C     4.187094     3.994574     0.566195
 H     4.912203     4.763699     0.841390
