 100
scf done:    -2462.618988
 C     1.127852     1.058217     3.529782
 H     1.887020     0.455096     4.038764
 H     1.396894     2.112596     3.421020
 C    -0.236792     0.684097     3.638203
 H    -0.505850    -0.205478     4.216450
 H    -1.019540     1.447083     3.614608
 H     0.036245     1.721836     1.323967
Rh     0.447113     0.214804     1.657763
 C     2.480155     2.286556    -0.401358
 C     3.767027    -0.086720     0.426386
 C     1.764159    -0.265974    -1.575582
 C    -1.542020     0.457677    -1.252040
 C    -1.965417    -1.951867     0.304829
 C    -3.020432     0.571352     1.167202
 P    -1.500359    -0.190659     0.473224
 P     2.081776     0.539445     0.046468
 C     0.917178    -1.582737     2.076255
 O     1.188252    -2.670041     2.324533
 H     3.270609     2.278993    -1.171884
 H     2.942141     2.690711     0.513346
 C     1.290280     3.133059    -0.826399
 H     0.757177     2.635832    -1.653495
 H     0.570976     3.171326     0.009485
 C     1.635858     4.557488    -1.266119
 H     2.359435     4.486387    -2.101091
 C     0.385285     5.254955    -1.790084
 H    -0.074312     4.690944    -2.617157
 H     0.610877     6.268699    -2.155777
 H    -0.371242     5.348479    -0.993070
 C     2.286622     5.366797    -0.150172
 H     2.505769     6.393916    -0.480769
 H     3.233848     4.920936     0.188257
 H     1.616993     5.432305     0.723917
 C     4.161911    -0.211025     1.761285
 H     3.441322     0.027561     2.547050
 C     4.688214    -0.405991    -0.578618
 H     4.397868    -0.327892    -1.629746
 C     5.448257    -0.636344     2.082791
 H     5.737606    -0.724777     3.133805
 C     5.969739    -0.836651    -0.250512
 H     6.674119    -1.085247    -1.049674
 C     6.373520    -0.961379     1.085071
 C     7.744370    -1.463043     1.432654
 H     7.758114    -2.564965     1.479822
 H     8.487914    -1.160337     0.680848
 H     8.074105    -1.090146     2.413029
 C     1.837776     0.387930    -2.809370
 H     2.179933     1.422670    -2.868780
 C     1.346104    -1.604188    -1.562348
 H     1.270110    -2.138007    -0.611722
 C     1.457929    -0.260420    -3.984618
 H     1.503539     0.281308    -4.933634
 C     0.993299    -2.254135    -2.738473
 H     0.667344    -3.297033    -2.694264
 C     1.018048    -1.587239    -3.971437
 C     0.555605    -2.267228    -5.226291
 H     1.000631    -1.810856    -6.121965
 H     0.809122    -3.337476    -5.222197
 H    -0.540186    -2.192320    -5.330612
 H    -0.817605    -0.146592    -1.820168
 H    -1.088160     1.456138    -1.170208
 C    -2.884918     0.522232    -1.963482
 H    -3.458526    -0.402655    -1.784600
 H    -3.493802     1.333395    -1.528067
 C    -2.757254     0.733940    -3.474980
 H    -2.195804    -0.130953    -3.880103
 C    -4.133312     0.749787    -4.129251
 H    -4.696654    -0.169082    -3.902941
 H    -4.059258     0.840293    -5.224288
 H    -4.729702     1.602389    -3.764004
 C    -1.967884     1.992552    -3.820035
 H    -1.922519     2.145066    -4.909682
 H    -0.932354     1.939945    -3.451682
 H    -2.439783     2.886105    -3.377009
 C    -2.021768    -2.626183    -0.917453
 H    -1.847900    -2.091740    -1.852510
 C    -2.178691    -2.690218     1.479340
 H    -2.118353    -2.185360     2.448029
 C    -2.286173    -3.995657    -0.962953
 H    -2.321577    -4.501201    -1.932356
 C    -2.454262    -4.049381     1.426817
 H    -2.618219    -4.599973     2.357490
 C    -2.509111    -4.731990     0.202344
 C    -2.782853    -6.206516     0.159567
 H    -3.709847    -6.457083     0.698804
 H    -2.882236    -6.569348    -0.873033
 H    -1.968611    -6.774120     0.638588
 C    -4.259130    -0.077174     1.191868
 H    -4.343519    -1.106076     0.834889
 C    -2.951956     1.893876     1.623486
 H    -1.986354     2.407036     1.619242
 C    -5.393571     0.579518     1.664608
 H    -6.351574     0.051710     1.675936
 C    -4.090878     2.548049     2.080005
 H    -4.013232     3.582958     2.425761
 C    -5.333138     1.901425     2.116512
 C    -6.549384     2.597699     2.652817
 H    -6.561289     3.661476     2.372449
 H    -7.475734     2.134596     2.283880
 H    -6.574752     2.552384     3.754564
