 102
scf done:    -3061.067793
 C    -0.980567     0.661928    -3.311681
 H    -1.431459    -0.184380    -3.838421
 H    -1.677026     1.480368    -3.113178
 C     0.404257     0.920779    -3.462517
 H     1.010131     0.270588    -4.101647
 H     0.766052     1.951338    -3.401151
 H    -0.130262     1.605438    -1.143793
Rh     0.033485     0.084990    -1.506102
 C    -2.231423     1.651920     0.442041
 C    -3.352199    -0.788401    -0.813783
 C    -1.913279    -1.026804     1.491022
 C     2.153285    -1.462305     0.675040
 C     3.535667     0.632089    -0.825388
 C     1.937123     1.385904     1.297568
 P     1.900123     0.183043    -0.108254
 P    -1.821215    -0.060444    -0.088864
 C     0.351950    -1.729628    -2.039569
 O     0.585047    -2.795641    -2.403486
 C    -1.533954     2.231948     1.502566
 H    -0.790380     1.642865     2.043396
 C    -3.102458     2.470782    -0.305940
 O    -3.667314     1.910233    -1.391788
 C    -4.631757     2.607880    -2.121493
 H    -5.489119     2.900639    -1.489586
 H    -4.982129     1.922676    -2.903897
 H    -4.214407     3.512898    -2.597568
 C    -1.747315     3.558319     1.882271
 H    -1.190333     3.973221     2.723865
 C    -3.324348     3.798057     0.071723
 H    -4.012914     4.422774    -0.497890
 C    -2.655153     4.334978     1.172413
 H    -2.839978     5.373306     1.458835
 C    -3.242870    -1.599445    -1.938504
 H    -2.257821    -1.710745    -2.393341
 C    -4.617212    -0.639637    -0.207757
 O    -4.673530     0.155481     0.876624
 C    -5.875158     0.300984     1.573147
 H    -6.659406     0.764618     0.948541
 H    -5.663404     0.961938     2.423336
 H    -6.247266    -0.666121     1.954053
 C    -4.351295    -2.257071    -2.475298
 H    -4.238374    -2.889503    -3.358259
 C    -5.732661    -1.290112    -0.742256
 H    -6.714017    -1.175024    -0.281159
 C    -5.593480    -2.095891    -1.873944
 H    -6.473610    -2.600529    -2.280638
 C    -2.334967    -0.512925     2.718721
 H    -2.603913     0.540639     2.788748
 C    -1.635999    -2.410266     1.410722
 O    -1.268418    -2.876701     0.206860
 C    -1.015437    -4.245549     0.037747
 H    -0.176928    -4.577715     0.671856
 H    -0.736219    -4.378208    -1.013461
 H    -1.912527    -4.849320     0.258852
 C    -2.445660    -1.318122     3.852281
 H    -2.771265    -0.882669     4.799389
 C    -1.764657    -3.225591     2.540316
 H    -1.547699    -4.291205     2.473101
 C    -2.159118    -2.675686     3.757862
 H    -2.249622    -3.322622     4.634112
 C     1.472179    -1.840143     1.832391
 H     0.794435    -1.134075     2.313619
 C     2.909277    -2.448503     0.003432
 O     3.444055    -2.083096    -1.175060
 C     4.106693    -3.022985    -1.968534
 H     5.005831    -3.423113    -1.467631
 H     4.414485    -2.493502    -2.878982
 H     3.440437    -3.858874    -2.243580
 C     1.616542    -3.113915     2.385805
 H     1.081123    -3.365680     3.302609
 C     3.052873    -3.727450     0.547409
 H     3.652496    -4.478206     0.032344
 C     2.423829    -4.049392     1.750375
 H     2.552943    -5.048922     2.173219
 C     3.581723     1.163496    -2.109004
 H     2.639882     1.241792    -2.652616
 C     4.735034     0.505665    -0.095700
 O     4.636608    -0.033366     1.134599
 C     5.777391    -0.167550     1.928768
 H     6.523988    -0.836377     1.465108
 H     5.446192    -0.610211     2.876906
 H     6.251071     0.808325     2.134853
 C     4.786558     1.573960    -2.682056
 H     4.800017     1.990346    -3.691533
 C     5.945261     0.913807    -0.663585
 H     6.878439     0.817368    -0.107843
 C     5.963678     1.446706    -1.953867
 H     6.916872     1.762681    -2.385646
 C     2.212108     1.061507     2.628065
 H     2.452770     0.031165     2.885130
 C     1.726586     2.747399     0.980845
 O     1.581442     3.043551    -0.317928
 C     1.046067     4.278619    -0.703707
 H     0.089399     4.477741    -0.192003
 H     0.865529     4.210903    -1.783995
 H     1.749107     5.107951    -0.510468
 C     2.199920     2.025031     3.636033
 H     2.406354     1.734290     4.668216
 C     1.708569     3.717410     1.989326
 H     1.523934     4.761663     1.736793
 C     1.933991     3.352199     3.313566
 H     1.917444     4.118255     4.092978
