  90
scf done:    -4742.035812
 C    -0.215398    -2.067706    -3.682195
 H    -0.875253    -2.937327    -3.616750
 H    -0.629398    -1.222280    -4.236525
 C     1.177849    -2.229468    -3.563895
 H     1.607595    -3.221507    -3.401261
 H     1.853570    -1.511485    -4.034623
 H     0.621804    -0.017818    -2.446620
Rh     0.400014    -1.399618    -1.705278
 O    -1.594602     0.838694     0.098951
 O    -2.512156     0.037087    -2.127100
 O    -2.351764    -1.494223    -0.024061
 O     3.530692    -1.872586    -0.804929
 O     2.844451     0.626424    -0.800715
 O     2.242475    -0.971399     1.113536
 P     2.249865    -0.893755    -0.554309
 P    -1.479790    -0.447959    -0.934354
 C     0.086125    -3.118654    -0.880308
 O    -0.121045    -4.128883    -0.390742
 C    -1.061649     2.097707     0.024396
 C     0.045777     2.413821    -0.755399
 H     0.522134     1.644413    -1.361987
 C    -1.674093     3.068237     0.820269
 H    -2.534765     2.795891     1.433068
 C     0.575710     3.709943    -0.737821
 C     1.805698     4.023354    -1.538459
 H     2.715449     3.752903    -0.977415
 H     1.827809     3.453377    -2.478367
 H     1.869749     5.094158    -1.778319
 C    -1.153377     4.357402     0.831935
 H    -1.627021     5.121686     1.452878
 C    -0.036288     4.680144     0.061684
 H     0.363450     5.697097     0.079438
 C    -3.780740     0.535666    -1.927043
 C    -3.973025     1.870053    -1.579007
 H    -3.116648     2.540088    -1.496159
 C    -4.871098    -0.317938    -2.086054
 H    -4.697632    -1.352886    -2.383118
 C    -5.258768     2.334513    -1.315827
 H    -5.423305     3.372444    -1.022463
 C    -6.156002     0.140550    -1.821650
 H    -7.014894    -0.526368    -1.906946
 C    -6.341219     1.462778    -1.417718
Cl    -7.934384     2.024445    -1.036727
 C    -3.617225    -1.442273     0.505795
 C    -4.416479    -2.569058     0.313784
 H    -4.004763    -3.419568    -0.232673
 C    -4.098420    -0.350429     1.227305
 H    -3.456155     0.508738     1.402480
 C    -5.721751    -2.586716     0.792104
 H    -6.361126    -3.456960     0.636023
 C    -5.407848    -0.363031     1.696534
 H    -5.803423     0.494911     2.241805
 C    -6.219526    -1.472165     1.466418
Cl    -7.859177    -1.468608     2.024297
 C     4.766451    -1.898997    -0.186123
 C     4.891464    -2.319701     1.133420
 H     3.997062    -2.615655     1.682315
 C     5.881114    -1.526707    -0.934323
 H     5.749533    -1.212517    -1.970329
 C     6.147330    -2.323755     1.752191
 C     6.282535    -2.780685     3.175927
 H     5.484758    -2.364571     3.809427
 H     6.210522    -3.878602     3.244911
 H     7.250596    -2.484713     3.603683
 C     7.128185    -1.525775    -0.320679
 H     8.007318    -1.206700    -0.885043
 C     7.260617    -1.910937     1.013299
 H     8.245125    -1.894085     1.487454
 C     4.091166     1.116627    -0.502220
 C     4.812776     1.695503    -1.545122
 H     4.362534     1.734092    -2.538478
 C     4.630195     1.063231     0.784060
 H     4.068187     0.599003     1.593201
 C     6.093598     2.187368    -1.316725
 H     6.673599     2.630463    -2.127696
 C     5.915261     1.543283     1.011448
 H     6.360756     1.476373     2.004695
 C     6.645453     2.094117    -0.040100
Cl     8.259985     2.655633     0.239852
 C     1.180297    -0.482640     1.834631
 C     0.157924    -1.348205     2.222777
 H     0.208466    -2.400208     1.939859
 C     1.141114     0.863733     2.193944
 H     1.937732     1.536798     1.874777
 C    -0.923405    -0.861847     2.950131
 H    -1.744067    -1.521267     3.235645
 C     0.070185     1.350677     2.935888
 H     0.020917     2.404943     3.208625
 C    -0.964078     0.488563     3.291617
Cl    -2.343190     1.118603     4.136055
