 100
scf done:    -3109.290389
 C    -0.761865    -4.035621    -0.584504
 H    -1.155616    -4.620914     0.252071
 H    -1.450952    -3.937122    -1.427998
 C     0.632508    -3.983847    -0.814688
 H     1.311855    -4.530249    -0.153777
 H     1.016817    -3.829274    -1.825471
 H    -0.229039    -1.695681    -1.486383
Rh    -0.019489    -2.093800     0.039194
 C    -3.426654    -1.499961    -0.678089
 O    -2.645446    -0.764201     1.721366
 O    -1.924966     0.711448    -0.149059
 C     2.312376     0.090723     1.518582
 O     3.068395    -0.999886    -0.761194
 O     1.222152     0.777704    -0.958785
 P     1.622930    -0.548383    -0.059237
 P    -1.936346    -0.915081     0.226177
 C     0.429293    -2.702884     1.801991
 O     0.800551    -3.136789     2.794756
 H    -3.088415    -1.689005    -1.707865
 H    -3.630235    -2.486594    -0.230278
 C    -4.626882    -0.600780    -0.650367
 C    -5.399383    -0.458704     0.510615
 H    -5.126555    -1.017206     1.407267
 C    -4.990982     0.133401    -1.785381
 H    -4.397934     0.047399    -2.699094
 C    -6.496776     0.396350     0.543226
 H    -7.103240     0.514425     1.442920
 C    -6.085482     0.993273    -1.768746
 H    -6.366577     1.573873    -2.648774
 C    -6.824110     1.116371    -0.599761
 F    -7.871621     1.940258    -0.572642
 C    -1.895393    -0.520137     2.842579
 C    -1.236997     0.698536     2.999733
 H    -1.339602     1.451553     2.217994
 C    -1.837361    -1.519638     3.823216
 C    -2.561331    -2.814420     3.618418
 H    -3.651505    -2.658229     3.585530
 H    -2.279987    -3.278155     2.660094
 H    -2.338597    -3.523972     4.426225
 C    -0.482906     0.932347     4.147494
 H     0.032998     1.887363     4.273636
 C    -1.076422    -1.257603     4.966257
 H    -1.006312    -2.028910     5.737628
 C    -0.397670    -0.051334     5.130961
 H     0.194751     0.121435     6.031996
 C    -2.076885     1.308372    -1.369944
 C    -1.530040     0.778639    -2.536008
 H    -0.943867    -0.139643    -2.484358
 C    -2.800521     2.511737    -1.378325
 C    -3.394597     3.029524    -0.107326
 H    -4.027148     2.262208     0.365941
 H    -2.612084     3.290257     0.623947
 H    -4.003440     3.924759    -0.290916
 C    -1.721841     1.441701    -3.747251
 H    -1.294853     1.024551    -4.662311
 C    -2.966087     3.158855    -2.603459
 H    -3.533794     4.092911    -2.629363
 C    -2.440561     2.633423    -3.784137
 H    -2.589579     3.158936    -4.729894
 H     1.435216     0.439372     2.085696
 H     2.640224    -0.835916     2.020485
 C     3.402669     1.122864     1.515185
 C     4.671909     0.853355     0.987474
 H     4.876532    -0.128639     0.560057
 C     3.170809     2.385970     2.072742
 H     2.190352     2.613997     2.495229
 C     5.667418     1.826436     0.980258
 H     6.656255     1.628287     0.562862
 C     4.154397     3.368113     2.075332
 H     3.970561     4.359530     2.491935
 C     5.392104     3.077374     1.516666
 F     6.338266     4.016933     1.502041
 C     3.114581    -1.847487    -1.838193
 C     2.436611    -1.546875    -3.017408
 H     1.853892    -0.626277    -3.074731
 C     3.871322    -3.019660    -1.701274
 C     4.545344    -3.328381    -0.400453
 H     5.266789    -2.544051    -0.122522
 H     3.808666    -3.386262     0.417069
 H     5.081263    -4.285727    -0.449916
 C     2.504500    -2.430448    -4.092600
 H     1.968734    -2.200608    -5.016403
 C     3.933188    -3.880868    -2.799464
 H     4.515344    -4.802288    -2.712723
 C     3.255350    -3.598969    -3.985176
 H     3.313994    -4.294832    -4.824902
 C     1.460366     2.110412    -0.718039
 C     0.556076     2.811633     0.074810
 H    -0.290085     2.267534     0.493226
 C     2.548922     2.745770    -1.333413
 C     3.480073     1.989602    -2.227867
 H     3.899086     1.110610    -1.718406
 H     2.953198     1.620955    -3.122485
 H     4.309286     2.629045    -2.558426
 C     0.742580     4.172088     0.303121
 H     0.031592     4.721549     0.924935
 C     2.714815     4.110777    -1.081182
 H     3.564896     4.624934    -1.537409
 C     1.831551     4.822787    -0.271192
 H     1.991984     5.889225    -0.097902
