  94
scf done:    -3229.102795
 C     1.940060    -3.419534    -1.462940
 H     2.714403    -3.339559    -2.230867
 H     2.293682    -3.801295    -0.500997
 C     0.589304    -3.601040    -1.828100
 H     0.313619    -3.667883    -2.884233
 H    -0.097142    -4.110126    -1.147897
 H     0.526962    -2.102600     0.229928
Rh     0.886547    -1.535889    -1.206392
 C     2.870317    -0.887275     1.678787
 O     3.940432    -0.481848    -0.803344
 O     2.346439     1.226596     0.280951
 C    -1.644783     0.826531    -1.992577
 O    -2.486185    -1.514236    -1.141241
 O    -1.299826    -0.032295     0.630715
 P    -1.121965    -0.571495    -0.923202
 P     2.452351    -0.411464    -0.047675
 C     1.243465    -0.906010    -2.986349
 O     1.441049    -0.537407    -4.052240
 H     2.981821    -1.981952     1.659633
 H     3.849860    -0.445311     1.916419
 C     1.832953    -0.448178     2.670831
 C     1.954288     0.793443     3.305437
 H     2.816599     1.427137     3.085961
 C     0.719694    -1.244125     2.957009
 H     0.620367    -2.214479     2.462808
 C     0.986140     1.212826     4.213480
 H     1.097185     2.174930     4.720281
 C    -0.273495    -0.827434     3.848819
 C    -1.494728    -1.664250     4.092571
 H    -1.328198    -2.714994     3.815152
 H    -1.802917    -1.634444     5.148060
 H    -2.344314    -1.289556     3.496582
 C    -0.120953     0.410845     4.481408
 H    -0.882949     0.751357     5.187683
 C     5.114003    -0.015100    -0.270561
 C     6.063027    -0.939516     0.169153
 H     5.834474    -2.004620     0.098631
 C     5.383236     1.353654    -0.204550
 H     4.641630     2.068992    -0.560584
 C     7.280381    -0.501371     0.682134
 H     8.038924    -1.204673     1.030142
 C     6.598950     1.795601     0.311054
 H     6.835150     2.859367     0.372723
 C     7.532150     0.864019     0.749763
 F     8.694692     1.288339     1.242388
 C     1.749851     2.138231    -0.532027
 C     0.930317     3.098401     0.065039
 H     0.793842     3.065814     1.146534
 C     1.965751     2.161297    -1.912129
 H     2.631713     1.429146    -2.371020
 C     0.315497     4.073136    -0.713380
 H    -0.322934     4.838335    -0.268085
 C     1.336436     3.126110    -2.697652
 H     1.480996     3.155202    -3.778926
 C     0.517783     4.069853    -2.090319
 F    -0.084354     4.993176    -2.837297
 H    -0.846679     1.573272    -1.862250
 H    -1.526727     0.419607    -3.010767
 C    -3.002877     1.432266    -1.794450
 C    -4.155522     0.787741    -2.252505
 H    -4.069773    -0.165175    -2.777870
 C    -3.133220     2.654506    -1.125887
 H    -2.230959     3.162613    -0.778147
 C    -5.407535     1.351347    -2.017450
 H    -6.306204     0.843657    -2.376748
 C    -4.380454     3.226705    -0.870880
 C    -4.502614     4.515086    -0.110587
 H    -3.516401     4.954346     0.095010
 H    -5.096917     5.256117    -0.667500
 H    -5.004272     4.352626     0.856608
 C    -5.521714     2.554182    -1.326507
 H    -6.510211     2.983163    -1.139529
 C    -2.572120    -2.800302    -0.686756
 C    -3.058007    -3.771959    -1.561480
 H    -3.329880    -3.479364    -2.576935
 C    -2.211173    -3.144095     0.617678
 H    -1.837083    -2.377159     1.295875
 C    -3.176703    -5.092447    -1.139513
 H    -3.550503    -5.871858    -1.805701
 C    -2.319883    -4.466592     1.039691
 H    -2.039947    -4.762643     2.052376
 C    -2.799044    -5.425992     0.156515
 F    -2.905339    -6.691380     0.561435
 C    -2.333676     0.644552     1.223146
 C    -3.667003     0.246607     1.107477
 H    -3.931729    -0.613270     0.494722
 C    -1.991221     1.741825     2.011851
 H    -0.937413     1.994789     2.120314
 C    -4.661840     0.993507     1.731463
 H    -5.714373     0.726975     1.625763
 C    -2.983474     2.483630     2.644428
 H    -2.741544     3.353724     3.257318
 C    -4.310111     2.107463     2.481511
 F    -5.271284     2.844739     3.047441
