 106
scf done:    -2989.478503
 C     1.962379    -3.397657    -1.491384
 H     2.742522    -3.315698    -2.253295
 H     2.309499    -3.781668    -0.527853
 C     0.613834    -3.578608    -1.866587
 H     0.346193    -3.642373    -2.925063
 H    -0.079132    -4.087970    -1.193011
 H     0.538439    -2.086768     0.195175
Rh     0.906941    -1.515970    -1.237282
 C     2.889986    -0.898108     1.652066
 O     3.958552    -0.465357    -0.824541
 O     2.367339     1.233790     0.280046
 C    -1.641314     0.810748    -2.062116
 O    -2.462929    -1.520165    -1.181982
 O    -1.294805     0.011885     0.570936
 P    -1.109397    -0.562483    -0.966944
 P     2.472586    -0.397395    -0.068862
 C     1.276697    -0.872795    -3.008733
 O     1.481855    -0.494275    -4.070188
 H     2.986525    -1.993836     1.620827
 H     3.876304    -0.471633     1.890264
 C     1.862050    -0.454394     2.651536
 C     2.006417     0.777178     3.300614
 H     2.879006     1.398103     3.085335
 C     0.733509    -1.232367     2.928589
 H     0.614566    -2.193555     2.420981
 C     1.046453     1.204192     4.213708
 H     1.174661     2.159301     4.729714
 C    -0.251287    -0.807754     3.826122
 C    -1.490011    -1.621760     4.058379
 H    -1.341058    -2.675242     3.781375
 H    -1.806980    -1.585794     5.111147
 H    -2.326047    -1.230531     3.453934
 C    -0.074891     0.419680     4.473448
 H    -0.831477     0.766489     5.182506
 C     5.131797     0.003246    -0.290728
 C     6.082473    -0.917344     0.151235
 H     5.855982    -1.983300     0.081950
 C     5.399542     1.369875    -0.217758
 H     4.656237     2.086000    -0.569257
 C     7.293014    -0.467970     0.668652
 H     8.029983    -1.198579     1.013884
 C     6.615791     1.802610     0.305855
 H     6.816173     2.876139     0.362408
 C     7.583949     0.899283     0.757603
 C     8.904187     1.374167     1.291900
 H     9.241484     0.758338     2.138935
 H     8.849892     2.418682     1.630349
 H     9.688107     1.319339     0.518021
 C     1.725682     2.148622    -0.495513
 C     0.893389     3.069120     0.142734
 H     0.788250     3.009118     1.226872
 C     1.904003     2.213896    -1.877291
 H     2.584353     1.518687    -2.371692
 C     0.226598     4.032008    -0.604976
 H    -0.420695     4.749445    -0.092398
 C     1.211486     3.174206    -2.615117
 H     1.344274     3.203654    -3.699889
 C     0.354103     4.092531    -2.000752
 C    -0.437153     5.084956    -2.801272
 H    -0.448803     6.074865    -2.320688
 H    -1.486211     4.757502    -2.900672
 H    -0.030357     5.202529    -3.815436
 H    -0.837002     1.555995    -1.964687
 H    -1.549977     0.379142    -3.072612
 C    -2.990094     1.427609    -1.842945
 C    -4.158169     0.797607    -2.289826
 H    -4.088591    -0.153440    -2.821238
 C    -3.098346     2.640859    -1.160427
 H    -2.185619     3.125695    -0.806704
 C    -5.398624     1.371896    -2.033994
 H    -6.308286     0.875839    -2.381654
 C    -4.337792     3.228674    -0.889585
 C    -4.407277     4.519272    -0.126823
 H    -3.986749     4.393202     0.883572
 H    -3.826996     5.311663    -0.625993
 H    -5.442584     4.873753    -0.023450
 C    -5.490289     2.575003    -1.334308
 H    -6.470905     3.015292    -1.133400
 C    -2.544180    -2.801357    -0.711658
 C    -3.026047    -3.786393    -1.573180
 H    -3.299957    -3.506991    -2.592158
 C    -2.179806    -3.132692     0.592354
 H    -1.807965    -2.359157     1.264315
 C    -3.128926    -5.099861    -1.130144
 H    -3.500009    -5.866303    -1.816427
 C    -2.281333    -4.455874     1.016791
 H    -1.983746    -4.708420     2.038520
 C    -2.753393    -5.463744     0.170519
 C    -2.877436    -6.884991     0.638251
 H    -3.932477    -7.161210     0.800703
 H    -2.344227    -7.044212     1.586092
 H    -2.469183    -7.589276    -0.102687
 C    -2.350571     0.626058     1.192587
 C    -3.672602     0.196804     1.064429
 H    -3.918399    -0.636930     0.409627
 C    -2.042611     1.687814     2.039804
 H    -0.997905     1.972456     2.158227
 C    -4.676941     0.876928     1.745202
 H    -5.711964     0.549491     1.615507
 C    -3.060245     2.346369     2.723688
 H    -2.804458     3.178207     3.386517
 C    -4.398692     1.965993     2.579259
 C    -5.504973     2.715921     3.261899
 H    -6.015837     3.392718     2.555762
 H    -5.126121     3.330383     4.091247
 H    -6.269021     2.033921     3.664470
