  88
scf done:    -2952.143683
 C     0.819234    -4.059431     0.612936
 H     1.461810    -4.509268    -0.149216
 H     1.278735    -3.984220     1.601939
 C    -0.587691    -4.137815     0.497786
 H    -1.035962    -4.658169    -0.353508
 H    -1.215143    -4.113370     1.392365
 H    -0.115682    -1.864872     1.538373
Rh     0.054541    -2.131594    -0.020702
 C     1.801300     0.306795     1.784505
 O     3.296489    -1.070363     0.104452
 O     1.573803     0.570209    -0.976508
 C    -2.094779     0.018742    -1.785410
 O    -3.234627    -1.250762     0.227845
 O    -1.477164     0.560434     0.862322
 P    -1.696483    -0.736509    -0.157581
 P     1.695069    -0.607011     0.197310
 C     0.223434    -2.537729    -1.893172
 O     0.294902    -2.784955    -3.008135
 H     0.787363     0.716824     1.911566
 H     1.899511    -0.506450     2.522086
 C     2.863793     1.349333     1.958439
 C     4.205072     0.990049     2.140390
 H     4.477517    -0.066169     2.172433
 C     2.538855     2.710043     1.924070
 H     1.496457     3.011259     1.801401
 C     5.198719     1.957874     2.248568
 H     6.247893     1.688428     2.382730
 C     3.519612     3.690638     2.027265
 H     3.274119     4.752691     1.983290
 C     4.843124     3.299009     2.178972
 F     5.792941     4.230742     2.265219
 C     3.702916    -2.043408    -0.771691
 C     4.355106    -3.162781    -0.256911
 H     4.498745    -3.239907     0.822245
 C     3.488062    -1.913071    -2.143840
 H     2.975852    -1.029795    -2.529780
 C     4.794528    -4.158968    -1.124399
 H     5.303604    -5.037782    -0.721605
 C     3.922990    -2.921773    -3.001695
 H     3.743619    -2.825385    -4.074844
 C     4.576498    -4.044819    -2.498067
 H     4.915495    -4.832104    -3.174694
 C     2.273022     1.736588    -1.154813
 C     3.667627     1.790921    -1.131746
 H     4.243348     0.889679    -0.925010
 C     1.525440     2.883505    -1.424425
 H     0.437407     2.804602    -1.458858
 C     4.301992     3.013325    -1.337291
 H     5.392717     3.059062    -1.297191
 C     2.172773     4.097959    -1.637730
 H     1.582450     4.994072    -1.844143
 C     3.563783     4.170073    -1.586602
 H     4.072667     5.123143    -1.744769
 H    -1.148613     0.497535    -2.085257
 H    -2.218607    -0.858292    -2.442606
 C    -3.255505     0.960743    -1.900084
 C    -4.574260     0.493914    -1.839181
 H    -4.760397    -0.574818    -1.722592
 C    -3.042797     2.335278    -2.052867
 H    -2.021759     2.718781    -2.113304
 C    -5.649860     1.374674    -1.894290
 H    -6.681336     1.021940    -1.840100
 C    -4.106091     3.229837    -2.107272
 H    -3.945658     4.304142    -2.208354
 C    -5.400681     2.735660    -2.017669
 F    -6.426846     3.585925    -2.055755
 C    -3.468929    -2.134088     1.249321
 C    -4.237662    -3.263134     0.971195
 H    -4.605233    -3.413890    -0.045386
 C    -2.971827    -1.909108     2.533634
 H    -2.371884    -1.020054     2.733789
 C    -4.506336    -4.177291     1.986206
 H    -5.105306    -5.064421     1.767477
 C    -3.240452    -2.835904     3.539041
 H    -2.845452    -2.665143     4.543215
 C    -4.004835    -3.970688     3.271618
 H    -4.210847    -4.693274     4.064051
 C    -2.209534     1.712863     0.996322
 C    -3.580013     1.701878     1.258864
 H    -4.114914     0.754558     1.316670
 C    -1.511758     2.918247     0.920238
 H    -0.440467     2.892098     0.714909
 C    -4.249625     2.913546     1.409764
 H    -5.326139     2.906656     1.595257
 C    -2.191028     4.122510     1.086401
 H    -1.640712     5.064457     1.023068
 C    -3.564192     4.125447     1.325074
 H    -4.100560     5.068830     1.446347
