  88
scf done:    -2005.706588
 C    -0.860225    -2.998065    -1.025967
 H    -1.705888    -3.457370    -0.504146
 H    -1.015712    -2.874349    -2.101896
 C     0.454039    -3.185711    -0.529855
 H     0.606893    -3.783071     0.374857
 H     1.295206    -3.212031    -1.227965
 H     0.390720    -0.837045    -1.551201
Rh    -0.183491    -1.169154    -0.096285
 C    -1.894555     0.694524    -2.523088
 C    -3.615657    -0.694923    -0.759287
 C    -2.306027     1.809714     0.100365
 C     1.817620     0.289591     2.407583
 C     3.217634    -1.303677     0.436057
 C     2.270489     1.517489    -0.110803
 P     1.776822    -0.130028     0.616966
 P    -1.962014     0.186464    -0.756888
 C    -0.746047    -1.558358     1.675383
 O    -1.016096    -1.790952     2.769722
 H    -0.942107     1.200673    -2.724878
 H    -1.917764    -0.219420    -3.133526
 H    -2.725209     1.354258    -2.815698
 H    -3.463014    -1.420064    -1.582175
 C    -4.827628     0.170432    -1.110722
 H    -4.644483     0.762205    -2.021327
 H    -5.004455     0.894734    -0.295844
 C    -6.083677    -0.679650    -1.289141
 H    -6.946282    -0.033617    -1.521252
 H    -5.948290    -1.343583    -2.162023
 C    -6.365798    -1.524176    -0.052347
 H    -7.248842    -2.163245    -0.215357
 H    -6.617817    -0.855599     0.791089
 C    -5.154958    -2.369136     0.325696
 H    -4.971780    -3.118492    -0.465875
 H    -5.353244    -2.936797     1.249260
 C    -3.901625    -1.516439     0.497514
 H    -4.038576    -0.844453     1.362344
 H    -3.036334    -2.151404     0.729974
 H    -3.295964     2.161693    -0.240938
 C    -1.263053     2.856359    -0.289674
 H    -1.293646     3.050325    -1.372550
 H    -0.266573     2.437660    -0.076036
 C    -1.432570     4.166641     0.471394
 H    -0.630482     4.867965     0.186779
 H    -2.382669     4.644021     0.170143
 C    -1.441260     3.943833     1.978030
 H    -1.591091     4.897210     2.510127
 H    -0.452697     3.562304     2.294546
 C    -2.513731     2.935075     2.367935
 H    -3.509269     3.357884     2.140698
 H    -2.496255     2.749910     3.454218
 C    -2.336487     1.619958     1.617240
 H    -1.385774     1.147188     1.920423
 H    -3.129525     0.912131     1.902344
 H     1.673732    -0.625502     2.999481
 H     2.752169     0.776346     2.721056
 H     0.973465     0.961763     2.619947
 H     2.733639    -2.252898     0.731001
 C     4.439742    -1.123641     1.338998
 H     4.137387    -1.049930     2.394785
 H     4.962886    -0.185136     1.094926
 C     5.406454    -2.294385     1.166099
 H     6.294433    -2.146921     1.802453
 H     4.917341    -3.218264     1.524353
 C     5.819187    -2.479969    -0.289857
 H     6.486293    -3.351423    -0.391342
 H     6.406171    -1.600928    -0.613882
 C     4.603111    -2.628291    -1.197522
 H     4.075298    -3.568053    -0.954290
 H     4.915857    -2.711265    -2.251180
 C     3.638672    -1.459585    -1.026321
 H     4.137804    -0.534232    -1.363694
 H     2.747402    -1.586044    -1.660507
 H     1.559096     2.190088     0.406707
 C     1.986375     1.637038    -1.607179
 H     0.973346     1.265465    -1.815905
 H     2.669180     0.975515    -2.166366
 C     2.161241     3.072590    -2.089864
 H     1.977463     3.131737    -3.175097
 H     1.395526     3.709416    -1.610126
 C     3.545889     3.613996    -1.752841
 H     3.638168     4.666200    -2.067600
 H     4.303916     3.050437    -2.326770
 C     3.845097     3.475489    -0.264745
 H     3.159379     4.126660     0.307643
 H     4.865527     3.827652    -0.041562
 C     3.674575     2.033895     0.210641
 H     4.422484     1.400887    -0.295834
 H     3.885715     1.968081     1.289253
