 104
scf done:    -2763.261480
 C    -1.504638    -1.144494    -3.057344
 H    -2.283773    -1.893139    -2.881882
 H    -1.870775    -0.225270    -3.522752
 C    -0.158922    -1.547292    -3.243715
 H     0.102849    -2.609718    -3.215470
 H     0.504644    -0.949911    -3.873993
 H    -0.074079     0.681156    -1.979975
Rh    -0.402258    -0.712341    -1.263394
 C    -1.756358     2.320933     0.178634
 C    -3.639866     0.388348    -0.905056
 C    -2.376933     0.003822     1.646859
 C     1.750851     1.344658     0.555028
 C     2.011665    -1.476218     1.142866
 C     3.132006    -0.301464    -1.311141
 P     1.641058    -0.322896    -0.230826
 P    -2.003144     0.501178    -0.087764
 C    -0.724403    -2.429309    -0.521252
 O    -0.891114    -3.496732    -0.126857
 H    -2.712419     2.749946     0.516608
 H    -1.084870     2.347281     1.052845
 C    -1.127677     3.125360    -0.948510
 H    -0.329577     2.523312    -1.413594
 H    -1.854827     3.304008    -1.758785
 C    -0.557173     4.452248    -0.466773
 H     0.125330     4.258874     0.381351
 H    -1.365674     5.084761    -0.056652
 C     0.197948     5.218663    -1.543222
 H     0.989202     4.567455    -1.955820
 H    -0.481957     5.429881    -2.387440
 C     0.814047     6.514150    -1.039982
 H     1.353843     7.046579    -1.837766
 H     1.530632     6.322683    -0.224185
 H     0.044560     7.197096    -0.645103
 C    -4.226197     1.458527    -1.577655
 H    -3.732377     2.431336    -1.570389
 C    -4.300600    -0.857935    -0.923902
 O    -3.690934    -1.855576    -0.256263
 C    -4.260075    -3.132580    -0.231016
 H    -5.243612    -3.130154     0.270974
 H    -3.566208    -3.767433     0.333200
 H    -4.376991    -3.547011    -1.247780
 C    -5.437095     1.317499    -2.258236
 H    -5.872972     2.171965    -2.780278
 C    -5.516629    -1.004719    -1.595910
 H    -6.029846    -1.966624    -1.604844
 C    -6.079479     0.084814    -2.262059
 H    -7.029038    -0.041549    -2.787752
 C    -1.504931    -0.865927     2.297864
 H    -0.632625    -1.228887     1.752532
 C    -3.507480     0.472071     2.350426
 O    -4.311813     1.336477     1.699947
 C    -5.548888     1.686894     2.248645
 H    -6.165246     0.796397     2.461893
 H    -6.059585     2.299283     1.494470
 H    -5.438900     2.276090     3.176430
 C    -1.726363    -1.284178     3.610263
 H    -1.019305    -1.965320     4.087992
 C    -3.747331     0.042653     3.659652
 H    -4.624479     0.394137     4.203871
 C    -2.855212    -0.831438     4.282673
 H    -3.054515    -1.154258     5.307759
 H     1.371920     2.017517    -0.230233
 H     0.982731     1.360449     1.347231
 C     3.091809     1.847396     1.063743
 H     3.488170     1.173926     1.840904
 H     3.824087     1.814522     0.240015
 C     3.004262     3.270746     1.597892
 H     2.266709     3.313467     2.420747
 H     2.602399     3.929577     0.806068
 C     4.334758     3.827974     2.083003
 H     4.730896     3.176477     2.882176
 H     5.069466     3.770434     1.260388
 C     4.239190     5.259381     2.585856
 H     5.214480     5.639899     2.925621
 H     3.537453     5.339588     3.431796
 H     3.875693     5.935446     1.794742
 C     1.922605    -1.114572     2.486019
 H     1.729288    -0.075098     2.755352
 C     2.245339    -2.830756     0.827651
 O     2.329386    -3.108573    -0.485715
 C     2.370703    -4.439760    -0.914939
 H     3.293603    -4.948088    -0.584317
 H     2.353725    -4.411170    -2.011568
 H     1.493774    -5.003757    -0.554100
 C     2.057641    -2.061400     3.504291
 H     1.981439    -1.751789     4.548758
 C     2.374294    -3.784362     1.838604
 H     2.544744    -4.832455     1.591336
 C     2.282059    -3.393386     3.175741
 H     2.384192    -4.145766     3.961533
 C     2.942337     0.092098    -2.635674
 H     1.922787     0.323317    -2.952154
 C     4.441229    -0.610212    -0.883848
 O     4.599669    -0.937386     0.412267
 C     5.852679    -1.327482     0.890234
 H     6.239424    -2.211081     0.352744
 H     5.711777    -1.587719     1.947195
 H     6.594690    -0.512585     0.815652
 C     4.004216     0.178800    -3.535891
 H     3.825169     0.492744    -4.566187
 C     5.506291    -0.550887    -1.789279
 H     6.517427    -0.800817    -1.466977
 C     5.283682    -0.156022    -3.108292
 H     6.127750    -0.110462    -3.801118
