  84
scf done:    -1853.359841
 C     2.451436    -0.542300     2.823059
 H     2.987015    -1.495562     2.876573
 H     3.106771     0.329394     2.734594
 C     1.198954    -0.415097     3.482795
 H     0.788547    -1.271870     4.026921
 H     0.906989     0.554606     3.895426
 H     1.049697     1.069144     1.441857
Rh     0.884114    -0.518652     1.352590
 C     1.403355     1.220608    -1.717022
 C     3.758471     0.019405    -0.609944
 C     1.741811    -1.619899    -1.891211
 C    -1.956577    -0.863570    -0.671542
 C    -2.600035    -0.566928     2.131922
 C    -1.679429     1.745678     0.642764
 P    -1.340778    -0.052964     0.882124
 P     1.930266    -0.224388    -0.690685
 C     0.687252    -2.405089     1.263296
 O     0.551579    -3.544837     1.182224
 H     1.933467     1.193230    -2.683745
 H     0.335359     1.051460    -1.940822
 C     1.584901     2.577026    -1.051625
 H     1.220426     2.517752    -0.011909
 H     2.659909     2.815229    -0.975744
 C     0.865750     3.701949    -1.783366
 H    -0.200121     3.430767    -1.903773
 H     1.262471     3.796347    -2.810733
 C     0.957600     5.044814    -1.072976
 H     0.563264     4.932925    -0.047354
 H     2.020109     5.321229    -0.954482
 C     0.212390     6.159410    -1.788954
 H     0.297705     7.116586    -1.252682
 H    -0.861001     5.925964    -1.881391
 H     0.602822     6.312687    -2.807982
 H     4.140596     0.347193    -1.593100
 H     3.910098     0.856897     0.091265
 C     4.507132    -1.210233    -0.113285
 H     4.428469    -2.018476    -0.860756
 H     4.004126    -1.583700     0.793433
 C     5.972770    -0.933019     0.181798
 H     6.502678    -0.566175    -0.712214
 H     6.079672    -0.167547     0.966907
 H     6.491944    -1.839577     0.528401
 H     2.028571    -2.528848    -1.335796
 H     0.655231    -1.715850    -2.059540
 C     2.484691    -1.555342    -3.218903
 H     3.566798    -1.445638    -3.035185
 H     2.180956    -0.655092    -3.778469
 C     2.241485    -2.787372    -4.078595
 H     2.570271    -3.703554    -3.562664
 H     1.170678    -2.907309    -4.308829
 H     2.784464    -2.728473    -5.034255
 H    -1.549006    -0.252596    -1.496864
 H    -1.416643    -1.823151    -0.725930
 C    -3.445263    -1.112342    -0.877747
 H    -3.813554    -1.803403    -0.101096
 H    -4.020387    -0.181459    -0.747745
 C    -3.750841    -1.701135    -2.248976
 H    -3.164539    -2.628106    -2.386547
 H    -3.395500    -1.005938    -3.031941
 C    -5.227209    -1.998764    -2.470967
 H    -5.576858    -2.693651    -1.687004
 H    -5.808490    -1.070690    -2.326339
 C    -5.526541    -2.581971    -3.842446
 H    -6.600010    -2.786610    -3.972327
 H    -4.986072    -3.529246    -3.999913
 H    -5.219974    -1.892427    -4.645546
 H    -3.617435    -0.386944     1.745863
 H    -2.486541    -1.660370     2.233628
 C    -2.418618     0.102689     3.487101
 H    -2.579368     1.189940     3.384504
 H    -1.371616    -0.020383     3.803763
 C    -3.358669    -0.449717     4.547054
 H    -4.414576    -0.322048     4.257967
 H    -3.188365    -1.526712     4.705440
 H    -3.214696     0.055097     5.514497
 H    -1.328937     2.216090     1.577053
 H    -0.957400     2.072653    -0.121571
 C    -3.077969     2.229957     0.289752
 H    -3.810731     1.840418     1.016861
 H    -3.376559     1.824472    -0.690808
 C    -3.160258     3.749601     0.250038
 H    -2.906833     4.186895     1.228912
 H    -2.454159     4.166668    -0.486384
 H    -4.169364     4.095910    -0.020488
