  88
scf done:    -3348.907892
 C    -0.408232    -4.147353    -0.601911
 H    -0.876357    -4.717873     0.205531
 H    -0.984862    -4.121272    -1.530784
 C     0.997631    -4.019360    -0.653515
 H     1.616277    -4.490230     0.115707
 H     1.500084    -3.881915    -1.613730
 H     0.067919    -1.789581    -1.526567
Rh     0.140502    -2.140809     0.026305
 C    -3.044956    -1.540872    -1.306165
 O    -2.836296    -1.066408     1.280441
 O    -1.611625     0.605262    -0.276408
 C     2.139284     0.301096     1.597089
 O     3.297671    -0.957033    -0.405713
 O     1.388147     0.657158    -1.060908
 P     1.733170    -0.550065     0.016224
 P    -1.811138    -1.027978    -0.042561
 C     0.340159    -2.615346     1.880065
 O     0.541099    -2.914371     2.966251
 H    -2.515394    -1.407963    -2.262565
 H    -3.108221    -2.629922    -1.144796
 C    -4.406945    -0.910557    -1.339110
 C    -5.348736    -1.165069    -0.334176
 H    -5.089719    -1.834088     0.487451
 C    -4.768355    -0.055604    -2.386585
 H    -4.052683     0.149684    -3.185891
 C    -6.600453    -0.557702    -0.353220
 H    -7.338765    -0.745182     0.428514
 C    -6.015021     0.560545    -2.420740
 H    -6.295931     1.241112    -3.226147
 C    -6.915599     0.306245    -1.394517
 F    -8.108544     0.899108    -1.411408
 C    -2.343628    -0.988356     2.553363
 C    -2.715210    -1.972205     3.469197
 H    -3.375154    -2.777316     3.141975
 C    -1.492694     0.049807     2.941263
 H    -1.221966     0.819110     2.216163
 C    -2.232456    -1.926579     4.772910
 H    -2.501504    -2.688025     5.506798
 C    -0.999001     0.092261     4.242452
 H    -0.326389     0.887089     4.570066
 C    -1.372125    -0.898728     5.141962
 F    -0.898706    -0.861039     6.385437
 C    -2.551034     1.539031    -0.632514
 C    -3.639154     1.836969     0.190234
 H    -3.785169     1.282826     1.117443
 C    -2.352678     2.234449    -1.824888
 H    -1.487178     1.986235    -2.442112
 C    -4.550349     2.811301    -0.202635
 H    -5.423109     3.049388     0.407555
 C    -3.257784     3.218809    -2.213852
 H    -3.129730     3.775756    -3.143723
 C    -4.351267     3.488155    -1.400841
 F    -5.230933     4.414704    -1.778410
 H     1.188754     0.769946     1.894505
 H     2.288752    -0.540071     2.294990
 C     3.275054     1.279484     1.677495
 C     4.606165     0.859346     1.561466
 H     4.823743    -0.197603     1.403795
 C     3.024257     2.639924     1.888389
 H     1.994008     2.988820     1.988895
 C     5.653986     1.772807     1.618509
 H     6.694054     1.455839     1.522943
 C     4.060037     3.566750     1.947046
 H     3.868771     4.631201     2.092406
 C     5.366772     3.119564     1.802950
 F     6.366344     3.999309     1.847253
 C     3.568800    -1.828090    -1.426308
 C     4.440285    -2.886010    -1.169786
 H     4.858315    -2.995885    -0.167765
 C     3.008935    -1.666636    -2.695226
 H     2.326002    -0.837148    -2.884111
 C     4.754570    -3.790291    -2.179338
 H     5.431484    -4.628090    -2.003591
 C     3.314084    -2.576098    -3.704951
 H     2.885810    -2.477747    -4.703925
 C     4.181875    -3.627268    -3.435701
 F     4.475218    -4.495493    -4.402978
 C     1.956787     1.904461    -1.120049
 C     3.298278     2.079982    -1.464116
 H     3.927634     1.209959    -1.652513
 C     1.137473     3.004749    -0.872495
 H     0.091341     2.835405    -0.613573
 C     3.828026     3.364413    -1.527392
 H     4.878155     3.532943    -1.771379
 C     1.663294     4.291995    -0.947229
 H     1.045939     5.171318    -0.754992
 C     3.005869     4.454314    -1.264034
 F     3.519332     5.683128    -1.313572
