 110
scf done:    -2393.697138
 C     2.223790    -2.552868    -2.508902
 H     3.063314    -2.180783    -3.104959
 H     2.503862    -3.311664    -1.771419
 C     0.920790    -2.578725    -3.075387
 H     0.771580    -2.222811    -4.099394
 H     0.215167    -3.357520    -2.771574
 H     0.594179    -2.086327    -0.583486
Rh     1.041856    -0.977000    -1.639185
 C     2.910397    -1.502361     1.339623
 C     4.133228     0.173609    -0.637102
 C     2.026875     1.220585     1.057204
 C    -1.635130     1.202739    -2.209990
 C    -2.440000    -1.499903    -1.609230
 C    -1.474714     0.174320     0.541494
 P    -1.110617    -0.288939    -1.211605
 P     2.460671    -0.251740     0.033011
 C     1.507324     0.377553    -2.886198
 O     1.779012     1.226855    -3.613657
 H     3.082908    -2.439696     0.790184
 H     3.863317    -1.197847     1.798721
 C     1.870173    -1.680835     2.404502
 C     1.966915    -0.976352     3.610561
 H     2.818957    -0.312551     3.780518
 C     0.775631    -2.534465     2.217477
 H     0.693869    -3.086704     1.277959
 C     0.997287    -1.128872     4.598653
 H     1.089689    -0.582083     5.540299
 C    -0.211157    -2.692790     3.195585
 C    -1.394984    -3.584556     2.958326
 H    -1.210456    -4.290145     2.136804
 H    -1.653769    -4.161326     3.858808
 H    -2.284525    -2.990362     2.688068
 C    -0.083401    -1.981776     4.394547
 H    -0.839239    -2.099633     5.175822
 H     3.954124     0.790365    -1.533177
 H     4.517640    -0.786076    -1.019856
 C     5.132754     0.858631     0.281558
 H     4.733157     1.842123     0.581088
 H     5.258169     0.285846     1.218829
 C     6.517857     1.074026    -0.338772
 H     6.370251     1.609605    -1.295547
 C     7.371236     1.956041     0.565559
 H     6.887607     2.926968     0.755991
 H     8.358570     2.153248     0.120120
 H     7.538781     1.470047     1.541500
 C     7.229294    -0.240244    -0.640708
 H     8.221307    -0.060455    -1.082800
 H     6.665494    -0.868122    -1.346470
 H     7.378316    -0.824397     0.283272
 H     2.847742     1.443552     1.760308
 H     1.166088     0.913296     1.669931
 C     1.687880     2.439409     0.213648
 H     2.513869     2.650875    -0.488104
 H     0.820354     2.198711    -0.426164
 C     1.399380     3.714986     1.010943
 H     2.312832     3.954154     1.588005
 C     1.127734     4.877444     0.062864
 H     1.961673     5.029634    -0.639740
 H     0.972270     5.818962     0.612044
 H     0.221850     4.689932    -0.538282
 C     0.256153     3.547368     2.005945
 H     0.085313     4.477327     2.569984
 H     0.450009     2.748624     2.737131
 H    -0.685875     3.299946     1.489135
 H    -0.787419     1.901277    -2.149438
 H    -1.667628     0.841958    -3.250345
 C    -2.905420     1.882374    -1.813505
 C    -4.149368     1.456766    -2.292935
 H    -4.198757     0.656850    -3.035937
 C    -2.872753     2.935284    -0.889887
 H    -1.902953     3.290779    -0.529957
 C    -5.321664     2.045439    -1.822143
 H    -6.288996     1.704523    -2.199475
 C    -4.036066     3.530628    -0.399301
 C    -3.971297     4.620577     0.630615
 H    -4.367875     4.269164     1.597403
 H    -2.938170     4.956997     0.796834
 H    -4.571588     5.493808     0.332334
 C    -5.269076     3.064475    -0.874806
 H    -6.195209     3.514411    -0.506448
 H    -2.380473    -1.674091    -2.696968
 H    -3.414115    -1.029639    -1.403560
 C    -2.294718    -2.817442    -0.862686
 H    -1.316553    -3.255283    -1.116918
 H    -2.260200    -2.632039     0.225475
 C    -3.402663    -3.833507    -1.150194
 H    -3.460662    -3.957801    -2.248262
 C    -3.050766    -5.187669    -0.544874
 H    -2.081026    -5.554372    -0.915882
 H    -3.812694    -5.946476    -0.781806
 H    -2.983206    -5.118598     0.553692
 C    -4.765572    -3.359184    -0.656335
 H    -5.549825    -4.099991    -0.876634
 H    -5.070074    -2.408650    -1.119547
 H    -4.750502    -3.206302     0.436377
 H    -1.018681     1.169958     0.667297
 H    -0.862121    -0.509107     1.150169
 C    -2.923919     0.193375     1.021039
 H    -3.588527     0.567084     0.229378
 H    -3.258081    -0.837698     1.233592
 C    -3.147733     1.056647     2.264747
 H    -2.801333     2.076316     2.010959
 C    -4.633226     1.142685     2.591079
 H    -5.205006     1.534501     1.735241
 H    -4.818404     1.798342     3.456641
 H    -5.039677     0.147117     2.837018
 C    -2.342615     0.573413     3.463475
 H    -2.501850     1.222144     4.339135
 H    -1.262009     0.548665     3.260366
 H    -2.641948    -0.449140     3.748273
