 100
scf done:    -3109.288990
 C     0.748951    -4.064443     0.736049
 H     1.477746    -4.518405     0.058590
 H     1.092620    -3.972450     1.769668
 C    -0.635465    -4.155820     0.462493
 H    -0.980254    -4.690449    -0.427268
 H    -1.362310    -4.124902     1.278334
 H    -0.294794    -1.869006     1.521867
Rh     0.049228    -2.151679    -0.005741
 C     1.589490     0.302104     1.966670
 O     3.252704    -1.063781     0.445294
 O     1.631379     0.562977    -0.804447
 C    -1.879126    -0.011074    -2.024220
 O    -3.248108    -1.283287    -0.162258
 O    -1.584085     0.538634     0.677056
 P    -1.677802    -0.760541    -0.356848
 P     1.647895    -0.612321     0.375915
 C     0.423483    -2.576153    -1.841832
 O     0.613543    -2.834058    -2.941482
 H     0.566292     0.707776     1.993323
 H     1.621378    -0.509384     2.711902
 C     2.627138     1.349829     2.232183
 C     3.949195     0.996023     2.529635
 H     4.218981    -0.058828     2.600476
 C     2.303648     2.708690     2.151623
 H     1.274133     3.004893     1.940973
 C     4.931333     1.967321     2.694954
 H     5.967775     1.702813     2.911917
 C     3.273755     3.693078     2.308682
 H     3.033501     4.753432     2.220012
 C     4.580759     3.304646     2.566394
 F     5.528927     4.239864     2.679839
 C     3.754659    -2.027400    -0.392149
 C     3.640935    -1.903977    -1.774396
 H     3.138354    -1.029504    -2.193920
 C     4.395054    -3.126703     0.177983
 H     4.462086    -3.200231     1.264560
 C     4.152546    -2.896321    -2.619617
 C     3.977525    -2.775311    -4.104572
 H     2.914901    -2.883909    -4.375084
 H     4.305947    -1.789208    -4.467199
 H     4.546210    -3.545896    -4.643052
 C     4.919463    -4.105686    -0.658934
 H     5.423724    -4.972654    -0.225425
 C     4.795810    -3.996200    -2.044488
 H     5.203967    -4.777864    -2.690030
 C     2.331343     1.738828    -0.915165
 C     3.718572     1.799147    -0.774807
 H     4.273162     0.893819    -0.528477
 C     1.599764     2.879880    -1.237687
 H     0.518873     2.799228    -1.362389
 C     4.386985     3.018336    -0.908324
 C     5.871704     3.103025    -0.705407
 H     6.106759     3.677040     0.204884
 H     6.320573     2.106125    -0.598159
 H     6.361944     3.612877    -1.549043
 C     2.266116     4.094104    -1.386965
 H     1.698034     4.993361    -1.637780
 C     3.644788     4.167267    -1.215537
 H     4.157983     5.126215    -1.324327
 H    -0.902143     0.461754    -2.214258
 H    -1.936157    -0.888799    -2.689398
 C    -3.015535     0.937661    -2.257380
 C    -4.334394     0.474962    -2.343393
 H    -4.532916    -0.595763    -2.276721
 C    -2.784710     2.314431    -2.350312
 H    -1.761723     2.693558    -2.298863
 C    -5.398069     1.362497    -2.470785
 H    -6.431204     1.014498    -2.523021
 C    -3.836336     3.216292    -2.473913
 H    -3.665611     4.292706    -2.518772
 C    -5.133306     2.724578    -2.518930
 F    -6.154104     3.583702    -2.595377
 C    -3.597818    -2.163013     0.830124
 C    -3.227321    -1.941506     2.153903
 H    -2.643455    -1.053828     2.405354
 C    -4.346236    -3.284070     0.473778
 H    -4.616081    -3.434096    -0.572813
 C    -3.582045    -2.858841     3.149992
 C    -3.146870    -2.625810     4.567345
 H    -2.047732    -2.617250     4.643083
 H    -3.503447    -1.652403     4.938929
 H    -3.526548    -3.406853     5.240324
 C    -4.713062    -4.189017     1.463614
 H    -5.296388    -5.073558     1.197151
 C    -4.329439    -3.984084     2.789404
 H    -4.614254    -4.708799     3.556177
 C    -2.339378     1.683455     0.744909
 C    -3.731674     1.653717     0.831187
 H    -4.251810     0.696475     0.799119
 C    -1.649458     2.892923     0.786850
 H    -0.560827     2.885160     0.719853
 C    -4.455782     2.845238     0.917000
 C    -5.956206     2.827879     0.944645
 H    -6.364113     3.235213     0.005734
 H    -6.345294     1.807505     1.064204
 H    -6.349037     3.445735     1.766611
 C    -2.368311     4.081137     0.895264
 H    -1.833166     5.033390     0.928864
 C    -3.758162     4.060790     0.952181
 H    -4.315100     4.998527     1.024694
