 114
scf done:    -2845.817897
 C     0.003964     0.795161    -3.684022
 H    -0.660699     0.241553    -4.355108
 H    -0.159590     1.877463    -3.691452
 C     1.299442     0.290626    -3.403921
 H     1.615916    -0.655373    -3.855118
 H     2.123702     0.980964    -3.207365
 H     0.424384     1.475480    -1.245488
Rh     0.026117    -0.003876    -1.677619
 C    -2.534506     2.443900    -1.363027
 C    -3.391620    -0.146828    -2.113191
 C    -2.821784     0.379121     0.651944
 C     0.901064    -1.460079     1.524857
 C     2.822743    -1.716160    -0.765433
 C     2.490559     0.680365     0.910827
 P     1.519361    -0.614073    -0.010205
 P    -2.085882     0.663653    -1.019893
 C    -0.466959    -1.761657    -2.208061
 O    -0.782099    -2.800362    -2.590162
 H    -2.249257     2.601262    -2.414714
 H    -3.630327     2.514530    -1.290551
 C    -1.898820     3.465167    -0.472947
 C    -2.578724     3.940389     0.654933
 H    -3.595978     3.595073     0.857798
 C    -0.601688     3.926858    -0.718537
 H    -0.075173     3.575239    -1.609299
 C    -1.958281     4.828991     1.525601
 H    -2.492594     5.187578     2.408423
 C     0.044963     4.807787     0.155771
 C     1.458673     5.238681    -0.108415
 H     1.606285     5.506160    -1.165745
 H     1.739152     6.105645     0.506165
 H     2.169331     4.425389     0.113490
 C    -0.651983     5.250794     1.285147
 H    -0.166602     5.942172     1.979465
 H    -3.426642     0.492570    -3.008813
 H    -2.970171    -1.105825    -2.434934
 C    -4.749760    -0.326513    -1.512711
 C    -5.688654     0.711741    -1.547482
 H    -5.450723     1.625073    -2.099391
 C    -5.080796    -1.529161    -0.849708
 C    -4.142328    -2.701905    -0.842752
 H    -3.160015    -2.467032    -0.404527
 H    -3.947076    -3.067795    -1.863838
 H    -4.560741    -3.535844    -0.263922
 C    -6.918861     0.602848    -0.903249
 H    -7.632038     1.429520    -0.942940
 C    -6.319637    -1.621636    -0.207647
 H    -6.575012    -2.550279     0.310384
 C    -7.231437    -0.567760    -0.217947
 H    -8.190364    -0.669285     0.295641
 H    -3.847984     0.783248     0.629540
 H    -2.948034    -0.714532     0.715952
 C    -2.123037     0.847937     1.897026
 C    -0.905652     1.529919     1.885815
 H    -0.426145     1.742000     0.928750
 C    -2.749516     0.583123     3.135773
 C    -4.061634    -0.142512     3.188335
 H    -4.853804     0.406130     2.652844
 H    -4.393293    -0.290706     4.225158
 H    -3.997874    -1.130473     2.703713
 C    -0.302097     1.953272     3.068598
 H     0.640925     2.503600     3.029260
 C    -2.126941     1.004870     4.314197
 H    -2.612232     0.795972     5.271793
 C    -0.911503     1.686643     4.290096
 H    -0.448726     2.013620     5.224257
 H     1.778936    -1.819444     2.087829
 H     0.480931    -0.633001     2.117469
 C    -0.132182    -2.540581     1.403485
 C    -1.240150    -2.528843     2.263310
 H    -1.351823    -1.710708     2.978847
 C    -0.009096    -3.600282     0.501685
 H     0.848130    -3.638271    -0.173236
 C    -2.180406    -3.553213     2.216759
 H    -3.031679    -3.539483     2.902370
 C    -0.956821    -4.628521     0.423699
 C    -0.806798    -5.712481    -0.602566
 H     0.196271    -6.164902    -0.565385
 H    -1.547133    -6.511869    -0.459357
 H    -0.939081    -5.300278    -1.615801
 C    -2.043011    -4.596156     1.301413
 H    -2.790089    -5.393671     1.264242
 H     2.268672    -2.604421    -1.108851
 H     3.080067    -1.173727    -1.683600
 C     4.053402    -2.103782    -0.001318
 C     3.957679    -2.925825     1.130089
 H     2.980617    -3.313902     1.426964
 C     5.332253    -1.689123    -0.437480
 C     5.522649    -0.904526    -1.703545
 H     4.948380     0.032794    -1.705515
 H     5.203146    -1.487460    -2.583031
 H     6.580178    -0.644053    -1.843238
 C     5.082367    -3.290191     1.866424
 H     4.975435    -3.929160     2.746071
 C     6.451054    -2.065017     0.314528
 H     7.439523    -1.737787    -0.019270
 C     6.337964    -2.844557     1.462847
 H     7.231303    -3.117174     2.029699
 H     1.725042     1.400844     1.237129
 H     2.867056     0.192391     1.818790
 C     3.604908     1.401316     0.209500
 C     3.353670     2.092130    -0.981730
 H     2.339209     2.068234    -1.385200
 C     4.901535     1.436339     0.766468
 C     5.224319     0.762771     2.069587
 H     4.989636    -0.312184     2.047725
 H     4.658405     1.208599     2.904038
 H     6.293046     0.860667     2.303139
 C     4.361208     2.788496    -1.644529
 H     4.138102     3.315098    -2.575580
 C     5.901691     2.140586     0.085611
 H     6.908411     2.164403     0.511869
 C     5.646806     2.807917    -1.109836
 H     6.450645     3.346337    -1.617556
