 112
scf done:    -2619.754105
 C     1.005952     1.830522    -2.956839
 H     1.597131     2.748281    -2.877371
 H     1.515911     1.010940    -3.471211
 C    -0.406595     1.910141    -2.999066
 H    -0.894239     2.888953    -2.956594
 H    -0.972603     1.151552    -3.546969
 H     0.105104    -0.237983    -1.742425
Rh     0.204931     1.196273    -1.050732
 C     2.728100    -1.292325    -0.584719
 C     3.587190     1.474558    -0.689900
 C     2.520783     0.347247     1.731751
 C    -2.816288     2.001734     0.485702
 C    -2.982157    -0.087214    -1.574112
 C    -2.211175    -0.607978     1.169495
 P    -1.876776     0.570111    -0.217713
 P     2.171225     0.395663    -0.100319
 C     0.344661     2.888463    -0.201083
 O     0.462155     3.900766     0.334677
 H     3.730228    -1.457322    -0.153696
 H     2.049296    -1.989522    -0.070369
 C     2.722565    -1.569709    -2.078358
 H     1.709046    -1.381937    -2.470586
 H     3.381388    -0.855060    -2.603543
 C     3.157612    -2.987951    -2.419261
 H     2.502019    -3.705846    -1.893086
 H     4.173888    -3.169780    -2.023459
 C     3.133689    -3.286156    -3.911563
 H     2.116439    -3.099596    -4.298559
 H     3.787054    -2.565102    -4.434298
 C     3.560585    -4.704699    -4.251777
 H     3.532552    -4.889343    -5.336310
 H     2.901433    -5.445737    -3.771356
 H     4.587340    -4.907090    -3.906381
 H     3.605186     1.312906    -1.778439
 H     3.241027     2.507229    -0.547627
 C     4.936840     1.242444    -0.085183
 C     5.734898     0.189016    -0.551969
 H     5.379530    -0.410323    -1.394090
 C     5.425382     2.055048     0.961799
 C     4.666053     3.257202     1.448226
 H     3.657676     3.005970     1.808817
 H     4.535652     4.000701     0.644992
 H     5.199787     3.749791     2.272291
 C     6.971660    -0.099419     0.018152
 H     7.571035    -0.927865    -0.366598
 C     6.669386     1.750127     1.525131
 H     7.046269     2.377983     2.337289
 C     7.437680     0.680215     1.072916
 H     8.404321     0.467067     1.535157
 H     3.579902     0.065090     1.844866
 H     2.425363     1.384755     2.078785
 C     1.648901    -0.566138     2.542521
 C     1.965237    -1.927171     2.636352
 H     2.856206    -2.299878     2.125250
 C     0.528309    -0.077408     3.244480
 C     0.161673     1.377868     3.203787
 H     0.018080     1.719136     2.167707
 H     0.948228     2.011141     3.646597
 H    -0.765891     1.569005     3.761547
 C     1.174214    -2.811851     3.362088
 H     1.429495    -3.872969     3.395447
 C    -0.241982    -0.974880     3.991995
 H    -1.107828    -0.594293     4.541887
 C     0.057342    -2.333470     4.040075
 H    -0.577646    -3.014565     4.610665
 H    -3.758726     1.645203     0.933495
 H    -2.190492     2.356665     1.322537
 C    -3.072126     3.143887    -0.484195
 H    -2.144339     3.371881    -1.033442
 H    -3.799748     2.828588    -1.253200
 C    -3.579867     4.405563     0.198990
 H    -2.836067     4.730659     0.948905
 H    -4.500113     4.175858     0.767151
 C    -3.852376     5.548708    -0.768295
 H    -2.929236     5.767074    -1.333692
 H    -4.591331     5.218807    -1.520150
 C    -4.346128     6.813658    -0.085323
 H    -4.532453     7.621080    -0.809557
 H    -3.609732     7.185499     0.645187
 H    -5.286486     6.632636     0.460126
 H    -3.162674     0.780570    -2.228213
 H    -2.343414    -0.771162    -2.146842
 C    -4.266425    -0.737155    -1.151979
 C    -5.312133     0.050221    -0.649309
 H    -5.198676     1.136423    -0.638386
 C    -4.448034    -2.136065    -1.234608
 C    -3.424205    -3.037587    -1.861813
 H    -2.460550    -3.003964    -1.334223
 H    -3.235480    -2.756380    -2.910663
 H    -3.769398    -4.080106    -1.853313
 C    -6.495089    -0.513027    -0.179340
 H    -7.289687     0.128486     0.208918
 C    -5.643272    -2.685789    -0.754778
 H    -5.779323    -3.769166    -0.812898
 C    -6.656168    -1.895458    -0.218317
 H    -7.575082    -2.357881     0.149806
 H    -1.733441    -0.153940     2.051968
 H    -3.295817    -0.556798     1.342535
 C    -1.779452    -2.040979     1.046060
 C    -0.646006    -2.397659     0.312753
 H    -0.088674    -1.607979    -0.193016
 C    -2.519591    -3.049734     1.699691
 C    -3.735501    -2.719324     2.514202
 H    -4.525446    -2.264796     1.893671
 H    -3.499763    -2.004222     3.318936
 H    -4.155138    -3.622674     2.978093
 C    -0.238307    -3.725108     0.205353
 H     0.649160    -3.976659    -0.380895
 C    -2.099220    -4.377893     1.579153
 H    -2.675730    -5.159645     2.081856
 C    -0.969917    -4.723631     0.839801
 H    -0.666604    -5.770420     0.760866
