 104
scf done:    -2763.408964
 C     1.724922    -2.780788    -1.795131
 H     2.564361    -2.532246    -2.450938
 H     2.003485    -3.357080    -0.909248
 C     0.413415    -2.874362    -2.311058
 H     0.233207    -2.705716    -3.376632
 H    -0.325026    -3.516122    -1.823285
 H     0.161639    -1.893554     0.020177
Rh     0.612879    -1.006756    -1.217553
 C     1.277697    -0.065077     2.118971
 O     3.406340    -0.292371     0.606897
 O     1.796882     1.716237     0.123614
 C    -1.921905     1.397504    -1.819761
 O    -2.795472    -1.008094    -1.202049
 O    -1.628463     0.311133     0.694871
 P    -1.420611    -0.107907    -0.914505
 P     1.786456     0.064627     0.378711
 C     1.177411     0.009329    -2.743571
 O     1.517346     0.616315    -3.654252
 H     1.848777     0.655889     2.724156
 H     0.224217     0.257424     2.104872
 C     1.396939    -1.479613     2.670471
 H     1.027070    -2.195789     1.915649
 H     2.460865    -1.722980     2.827432
 C     0.613498    -1.675669     3.960321
 H    -0.451538    -1.448753     3.768966
 H     0.943876    -0.939263     4.715362
 C     0.736562    -3.080919     4.531747
 H     0.447629    -3.809913     3.754400
 H     1.797636    -3.289648     4.755362
 C    -0.105953    -3.303163     5.777024
 H     0.008395    -4.324931     6.169669
 H    -1.176393    -3.145481     5.566681
 H     0.175256    -2.604001     6.581007
 C     4.217090    -0.603275    -0.453099
 C     4.294934     0.231395    -1.564806
 H     3.709745     1.153711    -1.581107
 C     4.963508    -1.779193    -0.388779
 H     4.876932    -2.416098     0.493034
 C     5.105335    -0.110381    -2.654339
 C     5.155679     0.785348    -3.857414
 H     4.147503     0.938445    -4.272865
 H     5.551786     1.779414    -3.595358
 H     5.793212     0.364570    -4.647200
 C     5.782188    -2.114078    -1.461594
 H     6.368497    -3.035453    -1.426222
 C     5.847180    -1.293729    -2.588772
 H     6.484341    -1.575813    -3.430748
 C     2.208775     2.706829     0.971784
 C     3.388057     2.622763     1.711641
 H     4.004630     1.725859     1.631928
 C     1.411307     3.852357     1.037890
 H     0.506310     3.900940     0.429376
 C     3.776594     3.678909     2.545935
 C     5.041932     3.568600     3.346595
 H     4.967143     2.764480     4.096257
 H     5.900866     3.327452     2.701387
 H     5.266348     4.503896     3.877725
 C     1.799688     4.903933     1.859878
 H     1.181908     5.803671     1.913651
 C     2.970395     4.818864     2.613524
 H     3.265756     5.650664     3.257771
 H    -1.310513     2.199251    -1.367988
 H    -1.506801     1.248196    -2.831257
 C    -3.391755     1.787098    -1.903390
 H    -3.961437     0.948464    -2.334336
 H    -3.802969     1.946812    -0.896045
 C    -3.607559     3.046142    -2.731176
 H    -3.218535     2.892082    -3.754466
 H    -3.008589     3.871415    -2.304176
 C    -5.068092     3.470144    -2.799215
 H    -5.664801     2.641443    -3.219837
 H    -5.445155     3.616821    -1.771491
 C    -5.295127     4.732037    -3.615488
 H    -6.358956     5.012731    -3.643747
 H    -4.958146     4.601124    -4.656480
 H    -4.737386     5.584808    -3.195756
 C    -2.892852    -2.332420    -0.873325
 C    -2.460380    -2.813751     0.362761
 H    -2.025990    -2.121417     1.085898
 C    -3.461996    -3.193612    -1.811068
 H    -3.791712    -2.789778    -2.769589
 C    -2.564766    -4.174645     0.669863
 C    -2.033997    -4.689525     1.976145
 H    -2.210367    -3.975255     2.794180
 H    -2.492305    -5.649949     2.251057
 H    -0.944184    -4.847944     1.914731
 C    -3.584108    -4.543843    -1.500250
 H    -4.029081    -5.226257    -2.228411
 C    -3.134765    -5.034615    -0.274257
 H    -3.228660    -6.099474    -0.046705
 C    -2.661444     1.057310     1.198176
 C    -3.929073     0.501835     1.358064
 H    -4.097212    -0.535467     1.062780
 C    -2.403154     2.375243     1.577249
 H    -1.392933     2.773744     1.466925
 C    -4.979993     1.275263     1.863779
 C    -6.352031     0.681098     1.996927
 H    -6.791617     0.482087     1.006183
 H    -6.320541    -0.279497     2.533409
 H    -7.032706     1.353078     2.537661
 C    -3.444817     3.144527     2.085950
 H    -3.257198     4.178963     2.383659
 C    -4.723698     2.604149     2.220078
 H    -5.534812     3.219800     2.617007
