  84
scf done:    -4489.235860
 C    -0.562891    -3.894535    -1.289340
 H    -1.109114    -4.584724    -0.638826
 H    -1.072288    -3.661851    -2.229284
 C     0.854076    -3.872838    -1.247686
 H     1.375983    -4.556416    -0.569870
 H     1.419813    -3.614636    -2.146993
 H     0.145476    -1.501379    -1.742720
Rh     0.095662    -2.110977    -0.269949
 C    -2.158128     0.091366    -1.667881
 C    -3.381430    -1.543662     0.378015
 C    -1.704559     0.571780     1.240341
 C     2.384886    -0.185920     1.709984
 C     3.424519    -0.975094    -0.811697
 C     1.398113     1.045414    -0.759763
 P     1.812993    -0.585140    -0.031432
 P    -1.784389    -0.742388    -0.042681
 C     0.129395    -2.914754     1.459727
 O     0.193034    -3.406843     2.495152
 H    -1.226752     0.620974    -1.919267
 H    -2.198639    -0.772356    -2.351157
 C    -3.348790     0.984032    -1.859225
 C    -4.662997     0.503135    -1.776250
 H    -4.844942    -0.552872    -1.570708
 C    -3.161862     2.339082    -2.167552
 H    -2.148695     2.735398    -2.263556
 C    -5.752624     1.350802    -1.956293
 H    -6.777485     0.981533    -1.888370
 C    -4.240075     3.199874    -2.352518
 H    -4.090912     4.254176    -2.592106
 C    -5.528231     2.693353    -2.235300
 F    -6.568576     3.507509    -2.404700
 C    -3.700803    -2.748158    -0.262185
 H    -2.970173    -3.207068    -0.930589
 C    -4.311499    -0.982998     1.260258
 H    -4.085633    -0.046996     1.774416
 C    -4.929405    -3.365365    -0.055073
 H    -5.179931    -4.299913    -0.559557
 C    -5.539394    -1.598895     1.488670
 H    -6.264401    -1.160898     2.176497
 C    -5.846026    -2.783362     0.821945
Cl    -7.374881    -3.547025     1.091136
 C    -2.226746     1.862513     1.094119
 H    -2.750861     2.145298     0.182537
 C    -1.069058     0.247377     2.446593
 H    -0.664808    -0.756431     2.589370
 C    -2.081245     2.814911     2.100162
 H    -2.480080     3.822753     1.972434
 C    -0.927071     1.182877     3.466542
 H    -0.428390     0.921602     4.401370
 C    -1.421946     2.474260     3.279685
Cl    -1.222755     3.656695     4.525328
 H     1.584846     0.405178     2.179105
 H     2.384859    -1.162331     2.217180
 C     3.726345     0.467720     1.820630
 C     4.878363    -0.321817     1.939731
 H     4.779540    -1.408019     2.005907
 C     3.885628     1.856305     1.733895
 H     3.009301     2.501117     1.649495
 C     6.148772     0.242962     1.951098
 H     7.047416    -0.370698     2.032890
 C     5.150193     2.440030     1.744570
 H     5.280637     3.521574     1.677645
 C     6.268952     1.623142     1.845393
 F     7.481209     2.175107     1.847805
 C     3.845386    -2.308273    -0.811645
 H     3.156128    -3.080583    -0.463918
 C     4.308406     0.013803    -1.262596
 H     4.011232     1.064294    -1.249616
 C     5.123705    -2.655170    -1.240816
 H     5.454431    -3.694961    -1.237403
 C     5.583484    -0.319424    -1.705169
 H     6.275195     0.450790    -2.049543
 C     5.986403    -1.654745    -1.685116
Cl     7.579425    -2.072899    -2.215986
 C     0.893329     2.105523    -0.001318
 H     0.822881     2.031044     1.084849
 C     1.420831     1.178858    -2.157195
 H     1.788215     0.354572    -2.773667
 C     0.429254     3.270458    -0.609389
 H     0.023576     4.085475    -0.008444
 C     0.964917     2.335404    -2.778365
 H     0.979910     2.430489    -3.865213
 C     0.464664     3.377526    -1.995774
Cl    -0.159860     4.800814    -2.761768
