  94
scf done:    -4670.221796
 C     1.485383     0.197140    -3.861218
 H     2.272172     0.929334    -4.062870
 H     1.748824    -0.832691    -4.116927
 C     0.131566     0.594397    -3.854639
 H    -0.129669     1.637801    -4.053499
 H    -0.657241    -0.123880    -4.091310
 H     0.322605    -1.192476    -2.023341
Rh     0.776410     0.317448    -1.803961
 C     2.715842    -2.459580    -0.713592
 O     3.928184    -0.035144    -0.929024
 O     2.393846    -0.609664     1.073792
 C    -1.273498    -1.100107     0.639128
 O    -1.718691     1.475215     0.227070
 O    -2.432535    -0.136384    -1.678416
 P    -1.154774     0.180192    -0.660339
 P     2.406857    -0.649600    -0.612007
 C     1.294934     2.162796    -1.608380
 O     1.638241     3.250458    -1.534830
 H     2.966801    -2.651957    -1.767856
 H     3.606561    -2.674335    -0.103668
 C     1.539835    -3.277434    -0.271259
 C     1.341309    -3.560250     1.084970
 H     2.064062    -3.199402     1.819726
 C     0.596297    -3.733282    -1.199374
 H     0.745315    -3.514570    -2.260123
 C     0.223730    -4.283795     1.492272
 H     0.072175    -4.499614     2.552441
 C    -0.537379    -4.452250    -0.805616
 C    -1.541736    -4.923853    -1.817059
 H    -1.429806    -4.391765    -2.772439
 H    -1.426525    -6.001108    -2.020443
 H    -2.571396    -4.770553    -1.458992
 C    -0.709167    -4.725165     0.556895
 H    -1.587967    -5.284059     0.889750
 C     5.104387    -0.564107    -0.467708
 C     5.949756    -1.200122    -1.377829
 H     5.641586    -1.274494    -2.422458
 C     5.480383    -0.440521     0.871290
 H     4.822088     0.067875     1.575942
 C     7.167442    -1.721723    -0.953703
 H     7.836536    -2.219288    -1.657399
 C     6.697096    -0.964560     1.298938
 H     7.002641    -0.874024     2.342448
 C     7.534426    -1.605200     0.386797
Cl     9.047000    -2.257248     0.921461
 C     2.002944     0.490473     1.774728
 C     1.180611     0.301515     2.887610
 H     0.883236    -0.711625     3.164872
 C     2.411667     1.777730     1.417531
 H     3.078154     1.921199     0.565923
 C     0.740742     1.396773     3.623282
 H     0.086115     1.259172     4.485300
 C     1.965556     2.876335     2.145786
 H     2.258908     3.885824     1.854753
 C     1.125658     2.681000     3.238931
Cl     0.519706     4.054467     4.109581
 H    -1.104190    -2.042202     0.095883
 H    -0.357843    -0.925501     1.223581
 C    -2.475828    -1.192736     1.530965
 C    -2.753804    -0.208879     2.485641
 H    -2.093413     0.654479     2.578526
 C    -3.329190    -2.296867     1.434263
 H    -3.104268    -3.072958     0.698814
 C    -3.883042    -0.324365     3.293168
 H    -4.100622     0.450739     4.032493
 C    -4.463626    -2.429370     2.236724
 C    -5.375640    -3.612621     2.095719
 H    -4.927006    -4.391153     1.462344
 H    -5.607845    -4.059775     3.074509
 H    -6.331907    -3.318909     1.634044
 C    -4.734858    -1.418653     3.167739
 H    -5.619484    -1.497118     3.805946
 C    -1.573470     2.766168    -0.193166
 C    -1.173996     3.712123     0.749440
 H    -0.994570     3.398569     1.777517
 C    -1.822312     3.145724    -1.513974
 H    -2.151482     2.401440    -2.241421
 C    -0.994906     5.037373     0.371916
 H    -0.671176     5.779327     1.103535
 C    -1.638350     4.472418    -1.894621
 H    -1.818797     4.782666    -2.924903
 C    -1.218161     5.410452    -0.953687
Cl    -0.975828     7.057641    -1.433302
 C    -3.693519    -0.532078    -1.321884
 C    -4.508864     0.248801    -0.500787
 H    -4.132100     1.187887    -0.097020
 C    -4.164841    -1.737098    -1.841779
 H    -3.510693    -2.322457    -2.490484
 C    -5.783159    -0.198067    -0.171352
 H    -6.421364     0.390859     0.488461
 C    -5.444726    -2.180868    -1.523332
 H    -5.824661    -3.123419    -1.920667
 C    -6.243833    -1.410169    -0.681802
Cl    -7.834159    -1.965608    -0.261746
