  84
scf done:    -2500.036381
 C    -0.656959    -4.169435    -0.869397
 H    -1.104480    -4.769928    -0.071934
 H    -1.300998    -4.042381    -1.743710
 C     0.753451    -4.174104    -1.024183
 H     1.365381    -4.768258    -0.338875
 H     1.186356    -4.063059    -2.021807
 H    -0.007321    -1.854793    -1.724165
Rh     0.132972    -2.279322    -0.192819
 C    -2.125258     0.025502    -1.432995
 O    -3.083149    -1.228068     0.660162
 O    -1.125020     0.347353     1.190555
 C     2.279662    -0.037333     1.416683
 O     3.212377    -0.897342    -0.902056
 O     1.196479     0.697038    -0.980632
 P     1.728793    -0.664527    -0.222620
 P    -1.583354    -0.807062     0.113423
 C     0.344199    -2.840141     1.624359
 O     0.462869    -3.173282     2.715264
 H    -1.180851     0.414068    -1.841976
 H    -2.405779    -0.831101    -2.069168
 C    -3.196694     1.075594    -1.433133
 C    -4.505782     0.801250    -1.009657
 H    -4.745436    -0.197720    -0.644693
 C    -2.914986     2.362850    -1.906782
 H    -1.909296     2.591530    -2.269524
 C    -5.488093     1.786545    -1.025719
 H    -6.507270     1.581792    -0.692430
 C    -3.886897     3.360473    -1.932333
 H    -3.668385     4.364852    -2.299271
 C    -5.164912     3.059026    -1.482556
 F    -6.103403     4.005589    -1.497042
 C    -3.248456    -1.949774     1.885520
 H    -2.355064    -1.782741     2.515889
 C    -3.385053    -3.429480     1.595613
 H    -2.497608    -3.793551     1.063317
 H    -4.268705    -3.613043     0.965243
 H    -3.496249    -3.999310     2.530248
 C    -4.464161    -1.372561     2.581774
 H    -4.349861    -0.292506     2.749754
 H    -5.363132    -1.528969     1.965782
 H    -4.623073    -1.863162     3.553551
 C    -1.897348     1.475142     1.621913
 H    -2.923935     1.376875     1.230410
 C    -1.262729     2.737514     1.077882
 H    -1.204149     2.700993    -0.015501
 H    -0.240653     2.853580     1.465448
 H    -1.853527     3.621060     1.361952
 C    -1.930620     1.454090     3.137442
 H    -2.375050     0.522131     3.512990
 H    -0.909147     1.529722     3.541781
 H    -2.518566     2.299612     3.524685
 H     1.341925     0.065920     1.982462
 H     2.838682    -0.880421     1.857279
 C     3.062005     1.240108     1.457036
 C     4.310775     1.366484     0.831567
 H     4.727532     0.508575     0.301924
 C     2.547033     2.354809     2.129274
 H     1.584001     2.271433     2.638195
 C     5.008435     2.570500     0.854990
 H     5.978319     2.678167     0.365674
 C     3.233995     3.566282     2.167858
 H     2.833683     4.436492     2.691024
 C     4.458699     3.659947     1.520887
 F     5.124449     4.814391     1.544442
 C     3.469863    -1.949411    -1.839831
 H     2.504655    -2.269247    -2.269615
 C     4.092315    -3.115518    -1.100790
 H     3.410332    -3.467060    -0.314096
 H     5.043214    -2.810851    -0.636422
 H     4.290563    -3.953327    -1.785967
 C     4.361740    -1.389531    -2.928030
 H     3.878758    -0.547486    -3.443506
 H     5.312673    -1.034017    -2.501816
 H     4.588521    -2.165604    -3.674074
 C     1.953221     1.528143    -1.865029
 H     3.020479     1.277315    -1.759394
 C     1.741095     2.973312    -1.467980
 H     2.081276     3.147900    -0.438676
 H     0.674560     3.239035    -1.530942
 H     2.303457     3.639978    -2.138732
 C     1.511466     1.234575    -3.287044
 H     1.624320     0.165242    -3.517611
 H     0.450928     1.497888    -3.425360
 H     2.105711     1.813146    -4.010529
