 108
scf done:    -2965.625215
 C    -0.059177    -0.749956    -3.283045
 H     0.456694    -0.018502    -3.913295
 H     0.431937    -1.727865    -3.242636
 C    -1.464942    -0.671957    -3.124788
 H    -2.020977     0.123448    -3.630901
 H    -2.044604    -1.584260    -2.954741
 H    -0.509333    -1.509976    -0.864408
Rh    -0.504999     0.016429    -1.310385
 C     2.184889    -1.928032    -0.420686
 C     2.907677     0.716104    -1.540122
 C     1.946282     0.547723     1.282982
 C    -2.220528     1.442845     1.502601
 C    -3.857472     0.546312    -0.789044
 C    -2.746809    -1.281796     1.235124
 P    -2.293400     0.159173     0.146866
 P     1.638649    -0.132013    -0.442607
 C    -0.461712     1.853393    -1.821763
 O    -0.401362     2.944718    -2.175655
 H     1.821350    -2.335227     0.532763
 H     1.552961    -2.369163    -1.202909
 C     3.614460    -2.306604    -0.649780
 C     4.089628    -2.492186    -1.956107
 H     3.404815    -2.370999    -2.800314
 C     4.503515    -2.520616     0.410670
 H     4.154136    -2.415105     1.438003
 C     5.415633    -2.838569    -2.206267
 H     5.790073    -2.981248    -3.221378
 C     5.831240    -2.867067     0.180215
 H     6.526620    -3.027253     1.006018
 C     6.275243    -3.012832    -1.128476
 F     7.546972    -3.341506    -1.354863
 H     3.221860    -0.061181    -2.251393
 H     2.324077     1.443486    -2.119086
 C     4.103763     1.364550    -0.910675
 C     5.305792     0.660896    -0.773706
 H     5.367809    -0.360625    -1.147641
 C     4.037609     2.701815    -0.460754
 C     2.811488     3.538881    -0.683478
 H     1.891767     3.068015    -0.306399
 H     2.639548     3.719916    -1.757169
 H     2.910683     4.519153    -0.197656
 C     6.418919     1.235938    -0.168120
 H     7.341613     0.658992    -0.072667
 C     5.161025     3.260303     0.160157
 H     5.106923     4.292826     0.516247
 C     6.342887     2.539197     0.316761
 H     7.204629     3.001808     0.803685
 H     2.357733     1.554393     1.127213
 H     0.932765     0.673636     1.684037
 C     2.804726    -0.205840     2.249506
 C     4.146393     0.151410     2.423302
 H     4.552919     0.983649     1.846003
 C     2.265404    -1.261364     3.015452
 C     0.804828    -1.607899     2.942845
 H     0.435532    -1.682793     1.908842
 H     0.194200    -0.832837     3.438186
 H     0.595400    -2.561387     3.446856
 C     4.967577    -0.540555     3.308373
 H     6.013663    -0.246309     3.419897
 C     3.107156    -1.953887     3.893242
 H     2.694729    -2.778426     4.481280
 C     4.449592    -1.607734     4.039014
 H     5.084476    -2.165987     4.731087
 H    -3.173913     1.427638     2.052993
 H    -1.454131     1.061311     2.195404
 C    -1.860342     2.827960     1.058009
 C    -0.582970     3.344731     1.306522
 H     0.144744     2.735757     1.846025
 C    -2.774696     3.648635     0.381355
 H    -3.788711     3.295910     0.185920
 C    -0.220563     4.623381     0.893958
 H     0.771396     5.029717     1.095196
 C    -2.426240     4.924553    -0.050599
 H    -3.135732     5.560382    -0.582719
 C    -1.145899     5.395939     0.206633
 F    -0.803822     6.616451    -0.201011
 H    -3.695795     1.575252    -1.151365
 H    -3.762564    -0.082924    -1.681590
 C    -5.214170     0.383023    -0.163250
 C    -5.625260     1.194244     0.904102
 H    -4.952208     1.961662     1.288200
 C    -6.126279    -0.567439    -0.677634
 C    -5.792254    -1.426972    -1.861530
 H    -4.901083    -2.045747    -1.681736
 H    -5.594989    -0.817389    -2.758238
 H    -6.623709    -2.104796    -2.095509
 C    -6.885408     1.067861     1.484387
 H    -7.171069     1.718586     2.314020
 C    -7.385612    -0.685744    -0.079073
 H    -8.084409    -1.426622    -0.476687
 C    -7.770765     0.113215     0.994137
 H    -8.762228    -0.004534     1.437599
 H    -1.793891    -1.582987     1.700164
 H    -3.377814    -0.877912     2.037590
 C    -3.417917    -2.474871     0.606231
 C    -2.819744    -3.142131    -0.470089
 H    -1.869005    -2.764611    -0.852430
 C    -4.638564    -2.963064     1.121223
 C    -5.310929    -2.333789     2.306974
 H    -5.541348    -1.272016     2.133479
 H    -4.679022    -2.393522     3.208237
 H    -6.257949    -2.842471     2.531491
 C    -3.412493    -4.257266    -1.056666
 H    -2.922573    -4.754285    -1.897288
 C    -5.223211    -4.080721     0.513801
 H    -6.172503    -4.453277     0.908338
 C    -4.627816    -4.726581    -0.566217
 H    -5.110466    -5.596877    -1.017335
