 112
scf done:    -2619.751892
 C     1.197025    -4.535890    -0.412577
 H     1.768497    -4.886106    -1.278073
 H     1.728106    -4.630044     0.539073
 C    -0.221971    -4.615207    -0.433246
 H    -0.726614    -5.024003    -1.314498
 H    -0.764461    -4.774504     0.503751
 H     0.327836    -2.554011     0.924312
Rh     0.374553    -2.565392    -0.675157
 C     2.113870     0.086896     0.982568
 C     3.773217    -2.002043    -0.150884
 C     2.542956     0.013050    -1.894509
 C    -1.709595     0.032561    -1.747168
 C    -3.104483    -2.287210    -0.545044
 C    -1.618550    -0.334540     1.172195
 P    -1.530682    -1.268098    -0.448862
 P     2.154327    -1.103376    -0.424116
 C     0.386710    -2.593582    -2.573484
 O     0.379360    -2.567256    -3.723597
 H     3.024300     0.705411     0.962770
 H     1.287642     0.778803     0.751516
 C     1.910796    -0.532638     2.355243
 H     1.076690    -1.253583     2.318139
 H     2.793562    -1.133872     2.635793
 C     1.647731     0.513044     3.430056
 H     0.766561     1.114923     3.140453
 H     2.492242     1.225558     3.467690
 C     1.417639    -0.080219     4.812327
 H     0.577319    -0.794860     4.759852
 H     2.299304    -0.679299     5.102252
 C     1.134230     0.966497     5.877413
 H     0.969841     0.509251     6.864918
 H     0.235964     1.554018     5.628202
 H     1.972555     1.675303     5.974318
 H     3.622955    -2.560110     0.786354
 H     3.817377    -2.753122    -0.953464
 C     5.008219    -1.160558    -0.115817
 C     5.799745    -1.003918    -1.261366
 H     5.552453    -1.561888    -2.168620
 C     5.379483    -0.464752     1.043200
 H     4.793358    -0.601655     1.955699
 C     6.903619    -0.153750    -1.249079
 H     7.512920    -0.042784    -2.149251
 C     6.475497     0.401277     1.071855
 C     6.808611     1.176624     2.313273
 H     6.396068     2.197962     2.256406
 H     6.387513     0.702052     3.210944
 H     7.895585     1.272239     2.451847
 C     7.234827     0.552707    -0.095855
 H     8.100948     1.220221    -0.094773
 H     3.505122    -0.328598    -2.303541
 H     1.772729    -0.203851    -2.646240
 C     2.593396     1.484160    -1.612791
 C     1.474976     2.292747    -1.839667
 H     0.580223     1.861919    -2.294490
 C     3.744586     2.075971    -1.076185
 H     4.632231     1.460305    -0.912112
 C     1.501169     3.646771    -1.507517
 H     0.620023     4.266360    -1.694675
 C     3.787444     3.429192    -0.734105
 C     5.025305     4.023490    -0.126034
 H     5.886663     3.350262    -0.240259
 H     5.278090     4.990718    -0.586379
 H     4.884562     4.206565     0.952486
 C     2.644449     4.211010    -0.950132
 H     2.658012     5.273089    -0.689757
 H    -0.920678     0.754206    -1.481556
 H    -1.368376    -0.439571    -2.683034
 C    -3.029097     0.759977    -1.961950
 H    -3.728619     0.098984    -2.501067
 H    -3.503064     0.990595    -0.997358
 C    -2.862946     2.056759    -2.741873
 H    -2.437886     1.846743    -3.740771
 H    -2.122223     2.688914    -2.220020
 C    -4.161648     2.837080    -2.885199
 H    -4.908307     2.211667    -3.406899
 H    -4.571956     3.020910    -1.876183
 C    -3.995146     4.158092    -3.617836
 H    -4.948854     4.700769    -3.704167
 H    -3.605778     4.005384    -4.637363
 H    -3.284936     4.815705    -3.090750
 H    -3.342729    -2.338913    -1.619230
 H    -2.770819    -3.292679    -0.253355
 C    -4.299541    -1.891341     0.267152
 C    -4.404737    -2.310378     1.601730
 H    -3.625216    -2.947091     2.029442
 C    -5.332591    -1.112580    -0.262397
 H    -5.277251    -0.795608    -1.305776
 C    -5.495345    -1.930316     2.378800
 H    -5.563200    -2.260429     3.418235
 C    -6.435204    -0.718256     0.501954
 C    -7.521867     0.115793    -0.112240
 H    -7.104070     0.896204    -0.766157
 H    -8.192650    -0.502685    -0.731296
 H    -8.138112     0.605378     0.655028
 C    -6.501628    -1.131973     1.836780
 H    -7.353137    -0.832609     2.453982
 H    -2.126245    -1.003402     1.882205
 H    -0.570811    -0.281396     1.489546
 C    -2.226972     1.035212     1.179848
 C    -1.471743     2.142097     0.772994
 H    -0.422792     2.019381     0.491121
 C    -3.556727     1.242104     1.567850
 H    -4.149847     0.390312     1.906750
 C    -2.050187     3.408050     0.712895
 H    -1.448205     4.260901     0.388978
 C    -4.152744     2.504500     1.511765
 C    -5.590644     2.693805     1.900454
 H    -5.996792     1.791061     2.376665
 H    -5.711611     3.538342     2.596237
 H    -6.212406     2.911485     1.016432
 C    -3.383993     3.588535     1.066882
 H    -3.832885     4.584451     1.013571
