 100
scf done:    -2162.808862
 C    -0.626272    -2.126843    -2.380147
 H    -1.298815    -2.945852    -2.105403
 H    -0.992622    -1.515283    -3.211230
 C     0.770613    -2.280796    -2.193428
 H     1.150354    -3.215487    -1.768669
 H     1.468212    -1.786080    -2.875395
 H     0.238051     0.165867    -1.818704
Rh    -0.006289    -0.922754    -0.699765
 C    -2.115809     1.413815    -2.086521
 C    -3.548409    -0.788990    -0.742188
 C    -2.291640     1.437476     0.883772
 C     1.342778     1.013531     1.905515
 C     3.150649    -1.105240     0.872111
 C     2.673671     1.432451    -0.714524
 P     1.841111     0.113203     0.326276
 P    -2.027549     0.297491    -0.574404
 C    -0.178674    -2.253159     0.643412
 O    -0.203798    -3.080825     1.445346
 H    -1.666758     0.744839    -2.839545
 C    -3.474966     1.849710    -2.621832
 H    -3.329062     2.410258    -3.560085
 H    -4.124402     0.994882    -2.856535
 H    -4.017811     2.511528    -1.931944
 C    -1.168329     2.599063    -1.922500
 H    -0.184983     2.269204    -1.557022
 H    -1.015805     3.100912    -2.891382
 H    -1.563928     3.351705    -1.223455
 H    -3.539822    -1.005768    -1.828730
 C    -4.908522    -0.178632    -0.388122
 H    -5.054805     0.795026    -0.872049
 H    -4.943382     0.003852     0.699323
 C    -6.053403    -1.119011    -0.757650
 H    -7.018150    -0.655789    -0.492999
 H    -6.066404    -1.258908    -1.854117
 C    -5.904372    -2.472916    -0.076231
 H    -6.712683    -3.154795    -0.386865
 H    -6.011966    -2.339834     1.015757
 C    -4.541334    -3.084199    -0.373585
 H    -4.482019    -3.333537    -1.448903
 H    -4.415463    -4.034050     0.170952
 C    -3.399122    -2.134956    -0.027073
 H    -3.370861    -1.972349     1.064821
 H    -2.437997    -2.588513    -0.296849
 H    -1.324921     1.976036     0.890233
 C    -2.362167     0.635697     2.185322
 H    -1.568390    -0.126058     2.197780
 H    -3.319168     0.086452     2.222398
 C    -2.263806     1.543275     3.406648
 H    -2.342213     0.946464     4.329915
 H    -1.264344     2.014605     3.424897
 C    -3.326514     2.635149     3.379168
 H    -3.213282     3.306757     4.245664
 H    -4.325513     2.171846     3.473581
 C    -3.264945     3.426600     2.078301
 H    -2.306259     3.975214     2.031513
 H    -4.059791     4.189916     2.053027
 C    -3.380099     2.515368     0.857392
 H    -4.377106     2.051219     0.852614
 H    -3.311197     3.118197    -0.058778
 H     0.366011     1.411105     1.588676
 C     1.073052     0.014470     3.027887
 H     0.512868     0.502466     3.840676
 H     0.481038    -0.845085     2.687124
 H     2.004122    -0.374482     3.464696
 C     2.157335     2.199558     2.409747
 H     2.273957     2.983690     1.648465
 H     1.633535     2.656096     3.266456
 H     3.158502     1.910944     2.761455
 H     2.528577    -1.842585     1.414081
 C     4.260408    -0.667183     1.833278
 H     3.851057    -0.132066     2.701037
 H     4.942109     0.033552     1.328857
 C     5.062189    -1.878468     2.306485
 H     5.860108    -1.555766     2.995355
 H     4.399687    -2.545165     2.887980
 C     5.652926    -2.652132     1.133257
 H     6.194254    -3.542641     1.492205
 H     6.402121    -2.017309     0.625563
 C     4.574827    -3.048449     0.131010
 H     3.894492    -3.784418     0.596321
 H     5.024859    -3.550590    -0.740951
 C     3.758027    -1.843413    -0.323368
 H     4.413456    -1.151821    -0.882273
 H     2.959174    -2.149614    -1.011758
 H     1.963823     2.277031    -0.602787
 C     2.735816     1.100594    -2.209540
 H     1.760359     0.726550    -2.550112
 H     3.454537     0.278108    -2.369351
 C     3.159945     2.316016    -3.026838
 H     3.203681     2.051654    -4.095989
 H     2.382600     3.096691    -2.933110
 C     4.497910     2.877888    -2.562050
 H     4.752319     3.792806    -3.121696
 H     5.293952     2.144814    -2.786292
 C     4.486856     3.151469    -1.063635
 H     3.788068     3.979866    -0.845121
 H     5.480669     3.487780    -0.725263
 C     4.059156     1.917771    -0.271705
 H     4.788601     1.111255    -0.456362
 H     4.098092     2.131706     0.802641
