  76
scf done:    -3986.223300
 C    -0.508316    -2.772971    -2.332850
 H    -1.250483    -3.534133    -2.069236
 H    -0.693362    -2.284346    -3.293524
 C     0.820806    -2.923968    -1.859122
 H     1.071304    -3.790107    -1.239280
 H     1.659736    -2.548560    -2.451574
 H     0.387203    -0.472158    -1.987348
Rh    -0.130987    -1.338364    -0.766822
 C    -2.123349     1.278306    -2.202174
 C    -3.551657    -0.534839    -0.523522
 C    -1.819193     1.294323     0.780253
 C     1.494120     0.343055     2.070057
 C     3.205956    -1.187400     0.359525
 C     2.124433     1.286421    -0.603400
 P     1.635231    -0.236621     0.294613
 P    -1.871606     0.198655    -0.692236
 C    -0.832582    -2.476190     0.597941
 O    -1.306262    -3.189368     1.363478
 H    -2.351265     0.484729    -2.937714
 C    -3.321002     2.217954    -2.129940
 H    -3.434937     2.745030    -3.090562
 H    -4.258505     1.680408    -1.933273
 H    -3.200565     2.984045    -1.348960
 C    -0.860003     1.981658    -2.684609
 H    -0.002875     1.295443    -2.705978
 H    -1.019580     2.364763    -3.704504
 H    -0.581472     2.841207    -2.058101
 C    -3.793890    -1.771072    -1.132156
 H    -2.969136    -2.280072    -1.635908
 C    -4.605993     0.101403     0.145488
 H    -4.443828     1.065511     0.632560
 C    -5.054190    -2.360020    -1.087793
 H    -5.239012    -3.324939    -1.562394
 C    -5.867998    -0.481055     0.209111
 H    -6.686500     0.011916     0.736123
 C    -6.085844    -1.710529    -0.412556
Cl    -7.653398    -2.439540    -0.336529
 C    -2.060185     0.708566     2.034191
 H    -2.375243    -0.336808     2.092291
 C    -1.414103     2.632689     0.745407
 H    -1.211440     3.122406    -0.206288
 C    -1.895670     1.425621     3.211912
 H    -2.080455     0.959617     4.181024
 C    -1.236063     3.363708     1.920007
 H    -0.913482     4.405734     1.884481
 C    -1.469283     2.754040     3.149612
Cl    -1.224793     3.645049     4.612390
 H     0.694913     1.102484     2.025292
 C     1.009117    -0.790130     2.962888
 H     0.866830    -0.419195     3.990095
 H     0.054015    -1.206411     2.621004
 H     1.745086    -1.609051     3.005190
 C     2.765389     0.965671     2.634980
 H     3.185883     1.750439     1.990559
 H     2.552174     1.417602     3.617102
 H     3.543590     0.201545     2.781478
 C     4.470413    -0.599626     0.227696
 H     4.558488     0.470225     0.026633
 C     3.129916    -2.561325     0.618307
 H     2.147769    -3.032591     0.698450
 C     5.629416    -1.361348     0.345279
 H     6.613836    -0.903605     0.235134
 C     4.279926    -3.332598     0.755430
 H     4.216994    -4.402740     0.958673
 C     5.526909    -2.725904     0.612950
Cl     6.964651    -3.678042     0.762303
 C     1.848369     2.572823    -0.130929
 H     1.406350     2.717674     0.854896
 C     2.682837     1.154911    -1.883925
 H     2.887626     0.158248    -2.283434
 C     2.112879     3.699149    -0.909404
 H     1.890454     4.700148    -0.535775
 C     2.962575     2.267502    -2.666677
 H     3.396272     2.157417    -3.661823
 C     2.668340     3.541039    -2.175386
Cl     2.991850     4.932517    -3.152359
