  52
scf done:    -1682.728531
 C    -0.739775    -2.723539    -1.292207
 H    -1.263631    -3.375462    -0.588082
 H    -1.339323    -2.424695    -2.155722
 C     0.668900    -2.777558    -1.397405
 H     1.224894    -3.491162    -0.781394
 H     1.157315    -2.524956    -2.342340
 H    -0.027228    -0.342245    -1.746572
Rh     0.079486    -0.986942    -0.297351
 C    -2.358090     1.315359    -1.388218
 O    -3.116286    -0.866076     0.179693
 O    -2.088195     1.251120     1.209631
 C     1.793934     1.815520     1.162547
 O     3.341405    -0.081139     0.224209
 O     2.083633     1.439647    -1.417932
 P     1.821913     0.477207    -0.102939
 P    -1.853220     0.172505    -0.030016
 C     0.206743    -1.840707     1.408350
 O     0.278102    -2.386307     2.415259
 H    -2.257321     0.672478    -2.280647
 C    -3.785425     1.837594    -1.297007
 H    -3.979088     2.535589    -2.127136
 H    -4.528840     1.032378    -1.366571
 H    -3.946585     2.386392    -0.356910
 C    -1.345734     2.453192    -1.485509
 H    -0.310468     2.086742    -1.536564
 H    -1.537576     3.053935    -2.388372
 H    -1.431023     3.116810    -0.611438
 C    -4.354977    -0.565711     0.782811
 H    -4.363326     0.436667     1.236584
 H    -5.166415    -0.626504     0.040608
 H    -4.548243    -1.312579     1.568870
 C    -1.723255     0.906793     2.523777
 H    -2.430240     0.184401     2.966939
 H    -0.712822     0.470450     2.556448
 H    -1.733228     1.825990     3.126152
 H     0.762566     2.206227     1.100321
 C     2.016819     1.199335     2.540131
 H     1.804432     1.937191     3.329128
 H     1.378274     0.321679     2.721146
 H     3.061387     0.871720     2.645127
 C     2.786230     2.937144     0.883077
 H     2.586455     3.422665    -0.080449
 H     2.728850     3.696517     1.679451
 H     3.814116     2.544605     0.859749
 C     3.746992    -1.405233    -0.024891
 H     2.876115    -2.065580    -0.164037
 H     4.377716    -1.451450    -0.928444
 H     4.337313    -1.758258     0.833988
 C     2.301713     0.875561    -2.686604
 H     3.271506     0.350711    -2.727627
 H     1.498494     0.165194    -2.950624
 H     2.314918     1.696801    -3.416452
