  92
scf done:    -2606.136336
 C    -0.596503    -2.844985    -2.233472
 H    -1.340326    -3.590549    -1.931471
 H    -0.799864    -2.385084    -3.204780
 C     0.744777    -3.000875    -1.789956
 H     1.000117    -3.854539    -1.154472
 H     1.572772    -2.656431    -2.415846
 H     0.339897    -0.549862    -1.983798
Rh    -0.156170    -1.373424    -0.724005
 C    -2.141150     1.224183    -2.185677
 C    -3.553838    -0.507708    -0.404636
 C    -1.775942     1.349243     0.782309
 C     1.534119     0.404412     2.005823
 C     3.207669    -1.204697     0.323352
 C     2.131963     1.239823    -0.706978
 P     1.647396    -0.244129     0.251479
 P    -1.873433     0.196384    -0.640890
 C    -0.826525    -2.458605     0.693672
 O    -1.280249    -3.148833     1.493453
 H    -2.390786     0.406540    -2.886808
 C    -3.328433     2.177659    -2.125989
 H    -3.456243     2.672367    -3.102449
 H    -4.266180     1.655778    -1.891564
 H    -3.185532     2.968133    -1.373425
 C    -0.882486     1.898374    -2.718619
 H    -0.029954     1.206094    -2.727992
 H    -1.057398     2.243072    -3.750102
 H    -0.585222     2.777952    -2.129497
 C    -4.595758     0.176035     0.244820
 H    -4.413464     1.163194     0.675812
 C    -3.826411    -1.771558    -0.930530
 H    -3.017330    -2.319669    -1.418621
 C    -5.856446    -0.387186     0.360877
 H    -6.667833     0.134961     0.871595
 C    -5.092697    -2.347155    -0.831797
 H    -5.260979    -3.337976    -1.254214
 C    -6.118448    -1.655158    -0.179495
 O    -7.370824    -2.123491    -0.018157
 C    -7.688771    -3.388280    -0.527479
 H    -7.076875    -4.182871    -0.065246
 H    -8.744276    -3.568355    -0.287181
 H    -7.559582    -3.434481    -1.623304
 C    -2.004780     0.820663     2.067367
 H    -2.330026    -0.217960     2.172271
 C    -1.358551     2.677132     0.694964
 H    -1.159334     3.126563    -0.277267
 C    -1.821421     1.584672     3.205873
 H    -1.997067     1.172004     4.201005
 C    -1.158290     3.460101     1.836380
 H    -0.827273     4.492375     1.718833
 C    -1.384681     2.915248     3.102825
 O    -1.215631     3.579103     4.262768
 C    -0.758745     4.901075     4.221155
 H    -1.459423     5.562074     3.680748
 H    -0.681983     5.241586     5.261462
 H     0.236173     4.976349     3.746825
 H     0.736119     1.164132     1.948327
 C     1.063275    -0.694877     2.946664
 H     0.946364    -0.291094     3.964844
 H     0.097411    -1.113098     2.639634
 H     1.794433    -1.518085     2.995222
 C     2.817166     1.041531     2.525863
 H     3.221912     1.807302     1.849235
 H     2.627107     1.519194     3.501056
 H     3.598930     0.281217     2.674213
 C     4.480652    -0.630158     0.175072
 H     4.573415     0.434645    -0.050438
 C     3.133074    -2.570371     0.606112
 H     2.149197    -3.035847     0.699799
 C     5.629169    -1.395710     0.302590
 H     6.621365    -0.957112     0.179922
 C     4.279254    -3.350713     0.753158
 H     4.175430    -4.413254     0.973894
 C     5.539775    -2.764009     0.597026
 O     6.707343    -3.427941     0.703816
 C     6.680500    -4.797522     0.991505
 H     6.153991    -5.371892     0.208841
 H     7.725115    -5.131230     1.033599
 H     6.200814    -5.004227     1.964639
 C     2.680647     1.060872    -1.989748
 H     2.879030     0.048793    -2.352291
 C     1.868044     2.543461    -0.289731
 H     1.428965     2.729592     0.690847
 C     2.959243     2.139519    -2.809925
 H     3.385360     2.001670    -3.805398
 C     2.133053     3.643690    -1.110611
 H     1.906431     4.645280    -0.743792
 C     2.682139     3.447005    -2.379565
 O     2.974480     4.435187    -3.248278
 C     2.696910     5.756176    -2.881716
 H     3.265135     6.063163    -1.985526
 H     2.998981     6.388835    -3.725988
 H     1.620399     5.910986    -2.687497
